
  EPA STORM WATER MANAGEMENT MODEL - VERSION 5.2 (Build 5.2.3)
  ------------------------------------------------------------

  WARNING 04: minimum elevation drop used for Conduit gq02
  WARNING 04: minimum elevation drop used for Conduit gq04
  WARNING 04: minimum elevation drop used for Conduit gq05
  WARNING 04: minimum elevation drop used for Conduit gq03
  WARNING 04: minimum elevation drop used for Conduit gq01
  
  ****************
  Analysis Options
  ****************
  Flow Units ............... CMS
  Process Models:
    Rainfall/Runoff ........ YES
    RDII ................... NO
    Snowmelt ............... NO
    Groundwater ............ NO
    Flow Routing ........... YES
    Ponding Allowed ........ NO
    Water Quality .......... NO
  Infiltration Method ...... HORTON
  Flow Routing Method ...... DYNWAVE
  Surcharge Method ......... EXTRAN
  Starting Date ............ 05/02/2018 00:01:00
  Ending Date .............. 05/02/2018 01:59:00
  Antecedent Dry Days ...... 0.0
  Report Time Step ......... 00:01:00
  Wet Time Step ............ 00:01:00
  Dry Time Step ............ 00:01:00
  Routing Time Step ........ 30.00 sec
  Variable Time Step ....... YES
  Maximum Trials ........... 8
  Number of Threads ........ 1
  Head Tolerance ........... 0.005000 m
  
  
  **************************        Volume         Depth
  Runoff Quantity Continuity     hectare-m            mm
  **************************     ---------       -------
  Initial LID Storage ......         0.181         8.615
  Total Precipitation ......         2.081        99.278
  Evaporation Loss .........         0.006         0.298
  Infiltration Loss ........         0.295        14.087
  Surface Runoff ...........         1.185        56.506
  Final Storage ............         0.794        37.887
  Continuity Error (%) .....        -0.820
  
  
  **************************        Volume        Volume
  Flow Routing Continuity        hectare-m      10^6 ltr
  **************************     ---------     ---------
  Dry Weather Inflow .......         0.000         0.000
  Wet Weather Inflow .......         1.181        11.812
  Groundwater Inflow .......         0.000         0.000
  RDII Inflow ..............         0.000         0.000
  External Inflow ..........         0.000         0.000
  External Outflow .........         1.177        11.772
  Flooding Loss ............         0.000         0.000
  Evaporation Loss .........         0.000         0.000
  Exfiltration Loss ........         0.000         0.000
  Initial Stored Volume ....         0.000         0.000
  Final Stored Volume ......         0.007         0.067
  Continuity Error (%) .....        -0.222
  
  
  ***************************
  Time-Step Critical Elements
  ***************************
  Link gq01 (99.60%)
  
  
  ********************************
  Highest Flow Instability Indexes
  ********************************
  Link gq01 (4)
  Link gq04 (3)
  
  
  *********************************
  Most Frequent Nonconverging Nodes
  *********************************
  Convergence obtained at all time steps.
  
  
  *************************
  Routing Time Step Summary
  *************************
  Minimum Time Step           :     1.18 sec
  Average Time Step           :     3.16 sec
  Maximum Time Step           :    30.00 sec
  % of Time in Steady State   :     0.00
  Average Iterations per Step :     2.00
  % of Steps Not Converging   :     0.00
  Time Step Frequencies       :
     30.000 - 13.228 sec      :     0.22 %
     13.228 -  5.833 sec      :     2.59 %
      5.833 -  2.572 sec      :    61.07 %
      2.572 -  1.134 sec      :    36.12 %
      1.134 -  0.500 sec      :     0.00 %
  
  
  ***************************
  Subcatchment Runoff Summary
  ***************************
  
  ------------------------------------------------------------------------------------------------------------------------------
                            Total      Total      Total      Total     Imperv       Perv      Total       Total     Peak  Runoff
                           Precip      Runon       Evap      Infil     Runoff     Runoff     Runoff      Runoff   Runoff   Coeff
  Subcatchment                 mm         mm         mm         mm         mm         mm         mm    10^6 ltr      CMS
  ------------------------------------------------------------------------------------------------------------------------------
  S1                        99.28       0.00       0.33      11.61      40.69      10.01      24.44        0.22     0.25   0.246
  S2                        99.28      62.70       0.30      14.42      54.85      63.39     113.21        0.40     0.22   0.699
  S3                        99.28       0.00       0.33      16.61      16.60      11.61      23.24        0.07     0.04   0.234
  S4                        99.28       0.00       0.30      10.73      48.30      31.29      79.58        0.22     0.10   0.802
  S5                        99.28     241.50       0.31      12.39     146.36     158.02     304.38        0.86     0.34   0.893
  S6                        99.28      67.39       0.31       8.58      83.81      54.88     144.02        0.25     0.17   0.864
  S7                        99.28       0.00       0.30      12.33      40.75      33.35      77.15        0.12     0.09   0.777
  S8                        99.28      50.39       0.30      11.88      55.42      62.18     122.45        0.28     0.30   0.818
  S9                        99.28       0.00       0.32      14.77      26.08      14.84      34.45        0.12     0.10   0.347
  S10                       99.28      27.96       0.33       7.89      80.96      15.86      75.80        0.29     0.17   0.596
  S11                       99.28      22.18       0.31      12.94      47.28      32.62      84.78        0.64     0.41   0.698
  S12                       99.28       0.00       0.34      14.04      28.24       4.54      26.60        0.11     0.12   0.268
  S13                       99.28       0.00       0.32      13.49      32.23      14.17      41.30        0.17     0.17   0.416
  S14                       99.28       0.00       0.33      17.37      12.65      10.11      21.40        0.08     0.06   0.216
  S15                       99.28      14.61       0.32      14.47      35.43      24.61      49.41        0.27     0.12   0.434
  S16                       99.28      51.41       0.32       4.76     101.68      27.08     134.05        0.46     0.24   0.890
  S17                       99.28       0.00       0.31      12.11      40.92      27.16      68.08        0.18     0.08   0.686
  S18                       99.28      53.94       0.32       6.66      87.39      39.63     133.47        0.19     0.10   0.871
  S19                       99.28       0.00       0.31      14.29      30.06      26.41      56.46        0.08     0.04   0.569
  S34                       99.28      29.30       0.26      20.39       6.32      55.12      61.44        0.77     0.20   0.478
  S21                       99.28      92.86       0.30      10.64      75.41      75.89     157.36        0.94     0.41   0.819
  S22                       99.28      41.81       0.31       8.00      72.76      35.17     115.24        1.13     0.92   0.817
  S23                       99.28      42.57       0.32      10.16      74.61      36.25      97.73        0.84     0.35   0.689
  S24                       99.28      77.81       0.32       6.95     121.61      33.37     153.22        0.56     0.54   0.865
  S25                       99.28       0.00       0.31      11.22      45.22      26.85      69.90        0.28     0.19   0.704
  S26                       99.28       0.00       0.31       9.39      53.46      23.00      74.78        0.41     0.37   0.753
  S27                       99.28       0.00       0.31       8.59      57.71      25.14      82.84        0.37     0.18   0.834
  S28                       99.28       0.00       0.31      10.03      50.51      23.44      71.19        0.11     0.08   0.717
  S29                       99.28      50.32       0.31       9.63      82.48      42.83     123.17        0.27     0.20   0.823
  S30                       99.28     111.42       0.32      10.47     114.52      64.27     174.81        0.42     0.29   0.830
  S31                       99.28     460.21       0.31      12.12     243.49     274.72     518.21        1.06     0.40   0.926
  S32                       99.28     658.34       0.31      11.90     369.56     339.12     747.91        2.48     1.80   0.987
  S33                       99.28     188.94       0.31       8.63     169.34      94.42     263.76        1.17     0.43   0.915
  S20                       99.28     218.86       0.32      10.96     176.20     104.77     276.23        0.52     0.33   0.868
  S36                       99.28       0.00       0.27      18.89      11.70      48.73      60.42        0.18     0.06   0.609
  S37                       99.28       0.00       0.26      21.25       0.98      61.16      62.14        0.05     0.02   0.626
  S38                       99.28       0.00       0.26      21.03       1.96      60.63      62.59        0.04     0.01   0.630
  S39                       99.28      57.49       0.26      21.25       1.55     105.73     107.29        0.16     0.06   0.684
  S40                       99.28       0.00       0.26      21.46       0.00      62.14      62.14        0.05     0.02   0.626
  S73                       99.28       0.00       0.26      21.03       1.96      59.24      61.20        0.08     0.03   0.616
  S42                       99.28      42.03       0.28      15.63       9.45      76.80      98.95        0.18     0.13   0.700
  S43                       99.28       0.00       0.30      10.73      48.38      32.10      80.48        0.15     0.07   0.811
  S44                       99.28       0.00       0.28      17.17      19.50      50.55      70.04        0.07     0.03   0.706
  S45                       99.28       0.00       0.27      19.31       9.23      46.53      59.88        0.22     0.07   0.603
  S46                       99.28       0.00       0.26      21.38       0.00      57.48      59.00        0.09     0.03   0.594
  S47                       99.28       0.00       0.27      19.09      10.52      46.87      58.72        0.25     0.08   0.592
  S48                       99.28       0.00       0.27      19.52       8.08      48.17      62.32        0.16     0.06   0.628
  S49                       99.28     113.50       0.28      19.51      18.08     141.66     167.38        0.23     0.08   0.787
  S50                       99.28     147.71       0.26      21.51       0.00     198.63     198.63        0.11     0.04   0.804
  S51                       99.28       0.00       0.27      19.29       9.37      52.15      64.55        0.08     0.03   0.650
  S52                       99.28       0.00       0.26      21.39       0.00      60.32      64.16        0.04     0.02   0.646
  S53                       99.28       0.00       0.26      21.41       0.00      60.71      62.61        0.05     0.02   0.631
  S54                       99.28      45.02       0.28      15.93      36.97      77.87     114.83        0.10     0.04   0.796
  S55                       99.28       0.00       0.28      15.45      27.29      47.51      74.80        0.04     0.02   0.753
  S56                       99.28       0.00       0.30      10.73      48.54      33.49      82.03        0.07     0.03   0.826
  S57                       99.28     116.41       0.30      21.00       0.00     154.81     170.88        0.10     0.05   0.792
  S58                       99.28       0.00       0.29      14.59      30.98      38.68      69.66        0.28     0.10   0.702
  S59                       99.28      99.27       0.28      19.43      19.64     125.06     144.70        0.41     0.13   0.729
  S60                       99.28       0.00       0.30      12.26      41.00      31.81      75.29        0.26     0.12   0.758
  S61                       99.28      52.00       0.30      10.77      74.14      56.40     130.54        0.21     0.09   0.863
  S62                       99.28       0.00       0.29      14.59      31.11      43.05      74.16        0.08     0.03   0.747
  S63                       99.28       0.00       0.28      17.17      19.47      48.01      67.48        0.12     0.04   0.680
  S64                       99.28     226.19       0.29      17.32      64.56     216.39     280.95        0.29     0.10   0.863
  S65                       99.28       0.00       0.28      17.17      19.47      48.32      67.79        0.11     0.04   0.683
  S66                       99.28       0.00       0.27      19.32       9.78      58.09      67.86        0.03     0.01   0.684
  S67                       99.28      56.19       0.26      21.50       0.00     114.34     114.34        0.06     0.02   0.735
  S68                       99.28       0.00       0.26      21.46       0.00      67.27      67.27        0.01     0.00   0.678
  S69                       99.28     233.40       0.28      17.19      66.05     224.98     291.03        0.20     0.07   0.875
  S70                       99.28     222.47       0.27      20.44      16.01     254.16     270.17        0.16     0.06   0.840
  S71                       99.28       0.00       0.26      20.39       4.89      56.08      60.97        0.10     0.03   0.614
  S72                       99.28       0.00       0.26      21.46       0.00      64.16      64.16        0.03     0.01   0.646
  S35                       99.28      39.02       0.26      20.41       6.82      67.00      73.82        0.64     0.18   0.534
  S41                       99.28       0.00       0.26      21.46       0.00      46.12      46.12        0.32     0.10   0.465
  

  ***********************
  LID Performance Summary
  ***********************

  --------------------------------------------------------------------------------------------------------------------
                                         Total      Evap     Infil   Surface    Drain    Initial     Final  Continuity
                                        Inflow      Loss      Loss   Outflow   Outflow   Storage   Storage       Error
  Subcatchment      LID Control             mm        mm        mm        mm        mm        mm        mm           %
  --------------------------------------------------------------------------------------------------------------------
  S1                PP                  191.20      0.34     19.66      4.90      0.00     25.71    192.05       -0.02
  S1                PP                  171.14      0.34     19.66      0.00      0.00     34.29    185.26        0.08
  S1                BR                  375.03      0.33     19.66    321.20      0.00    193.57    227.53       -0.02
  S2                PP                  243.70      0.34     19.66     54.58      0.00     25.71    194.93       -0.04
  S2                BR                  243.70      0.33     19.66    190.18      0.00    193.57    227.22       -0.03
  S3                PP                  106.84      0.34     19.66      0.00      0.00     25.71    112.53        0.02
  S5                PP                   99.28      0.34     19.66      0.00      0.00     25.71    104.97        0.01
  S6                RG                  315.38      0.33      0.08    261.88      0.00     66.00    119.05        0.01
  S7                BR                  283.38      0.33     19.66    230.08      0.00    193.57    226.99       -0.02
  S8                RG                  738.84      0.34      0.98    695.55      0.00    150.00    191.99       -0.00
  S9                PP                  115.53      0.34     19.66      0.00      0.00     25.71    121.19        0.03
  S9                BR                  364.15      0.33     19.66    310.58      0.00    193.57    227.27       -0.02
  S10               PP                  203.20      0.34     19.66     13.96      0.00     25.71    195.05       -0.05
  S11               PP                   99.28      0.34     19.66      0.00      0.00      0.00     79.27        0.01
  S11               BR                  233.22      0.33     19.66    179.97      0.00    193.57    226.94       -0.03
  S12               PP                  113.53      0.34     19.66      0.00      0.00     25.71    119.20        0.03
  S12               BR                  269.20      0.33     19.66    215.76      0.00    193.57    227.13       -0.02
  S13               PP                  126.51      0.34     19.66      0.00      0.00     25.71    132.15        0.04
  S13               BR                  197.58      0.33     19.66    144.72      0.00    193.57    226.56       -0.03
  S14               PP                  104.93      0.34     19.66      0.00      0.00     25.71    110.62        0.02
  S14               BR                  171.29      0.33     19.66    118.35      0.00    193.57    226.63       -0.03
  S15               PP                  123.90      0.34     19.66      0.00      0.00     25.71    129.54        0.04
  S16               BR                   99.28      0.32      0.00     45.31      0.00     50.00    103.57        0.05
  S17               PP                   99.28      0.34     19.66      0.00      0.00      0.00     79.27        0.01
  S18               BR                   99.28      0.32      0.00     45.31      0.00     50.00    103.57        0.05
  S19               PP                   99.28      0.34     19.66      0.00      0.00      0.00     79.27        0.01
  S21               RG                  268.55      0.33      0.08    214.63      0.00     66.00    119.48        0.01
  S22               PP                 1172.91      0.34     19.66    975.69      0.00     25.71    203.14       -0.02
  S22               BR                 1172.91      0.32     19.66   1261.68      0.00    193.57    229.53      -10.59
  S22               RG                   99.28      0.32      0.00     44.83      0.00     30.00     84.06        0.05
  S23               PP                  581.07      0.34     19.66    386.69      0.00     25.71    200.26       -0.03
  S23               PP                  340.17      0.34     19.66    147.11      0.00     25.71    198.94       -0.05
  S24               PP                  763.28      0.34     19.66    568.88      0.00     25.71    200.28       -0.02
  S24               BR                  763.28      0.33     19.66    727.07      0.00    193.57    228.65       -1.97
  S25               PP                  375.08      0.34     19.66    186.33      0.00     25.71    194.55       -0.02
  S25               BR                  375.08      0.33     19.66    321.24      0.00    193.57    227.54       -0.02
  S26               PP                  541.67      0.34     19.66    351.11      0.00     25.71    196.39       -0.02
  S26               BR                  541.67      0.33     19.66    487.40      0.00    193.57    227.97       -0.02
  S28               PP                  330.95      0.34     19.66    143.67      0.00     25.71    193.05       -0.02
  S28               BR                  330.95      0.33     19.66    277.48      0.00    193.57    227.16       -0.02
  S29               PP                  632.98      0.34     19.66    442.46      0.00     25.71    196.35       -0.02
  S29               BR                  632.98      0.33     19.66    578.81      0.00    193.57    227.86       -0.01
  S30               PP                  507.58      0.34     19.66    316.13      0.00     25.71    197.30       -0.03
  S30               BR                  507.58      0.33     19.66    453.27      0.00    193.57    228.01       -0.02
  S32               PP                 1935.25      0.34     19.66   1726.96      0.00     25.71    214.39       -0.02
  S32               BR                 1935.25      0.30     19.66   2594.64      0.00    193.57    223.84      -33.33
  S20               PP                  599.34      0.34     19.66    410.49      0.00     25.71    194.66       -0.02
  S20               BR                  599.34      0.33     19.66    544.71      0.00    193.57    228.34       -0.02
  S42               BR                  142.25      0.34      0.98    100.75      0.00    528.57    568.69        0.01
  S45               VS                  150.68      0.34     19.13    128.09      0.00      0.00      0.64        1.65
  S46               VS                   99.28      0.28     17.31     76.94      0.00      0.00      0.97        3.80
  S47               VS                  670.38      0.33     18.66    643.58      0.00      0.00      1.59        0.93
  S48               VS                  200.36      0.34     19.34    176.94      0.00      0.00      0.76        1.48
  S49               VS                   99.28      0.33     19.08     77.51      0.00      0.00      0.48        1.89
  S49               VS                  510.93      0.33     18.94    482.07      0.00      0.00      1.96        1.49
  S51               VS                  332.47      0.33     18.58    308.52      0.00      0.00      1.03        1.21
  S52               VS                   99.28      0.32     20.05     76.61      0.00      0.00      0.47        1.84
  S53               VS                   99.28      0.31     19.35     77.35      0.00      0.00      0.47        1.81
  S57               BR                   99.28      0.33     19.66     46.92      0.00    193.57    226.04       -0.04
  S60               BR                  313.55      0.33     19.66    257.43      0.00    193.57    229.85       -0.03
  
  ******************
  Node Depth Summary
  ******************
  
  ---------------------------------------------------------------------------------
                                 Average  Maximum  Maximum  Time of Max    Reported
                                   Depth    Depth      HGL   Occurrence   Max Depth
  Node                 Type       Meters   Meters   Meters  days hr:min      Meters
  ---------------------------------------------------------------------------------
  j02                  JUNCTION     0.27     0.45     0.45     0  00:50        0.44
  j04                  JUNCTION     0.40     0.74     0.74     0  00:56        0.69
  j01                  JUNCTION     0.18     0.34     0.34     0  00:53        0.34
  j05                  JUNCTION     0.19     0.25     0.25     0  01:16        0.25
  j03                  JUNCTION     0.12     0.23     0.23     0  00:51        0.23
  pfk6                 OUTFALL      0.00     0.00     0.00     0  00:00        0.00
  pfk4                 OUTFALL      0.28     0.56     0.56     0  00:56        0.56
  pfk2                 OUTFALL      0.14     0.30     0.30     0  00:50        0.29
  pfk1                 OUTFALL      0.16     0.33     0.33     0  00:53        0.32
  pfk5                 OUTFALL      0.15     0.23     0.23     0  01:16        0.23
  pfk3                 OUTFALL      0.09     0.21     0.21     0  00:51        0.21
  
  
  *******************
  Node Inflow Summary
  *******************
  
  -------------------------------------------------------------------------------------------------
                                  Maximum  Maximum                  Lateral       Total        Flow
                                  Lateral    Total  Time of Max      Inflow      Inflow     Balance
                                   Inflow   Inflow   Occurrence      Volume      Volume       Error
  Node                 Type           CMS      CMS  days hr:min    10^6 ltr    10^6 ltr     Percent
  -------------------------------------------------------------------------------------------------
  j02                  JUNCTION     0.686    0.686     0  00:50         1.2         1.2       1.069
  j04                  JUNCTION     2.441    2.441     0  00:56        4.16        4.16       0.550
  j01                  JUNCTION     0.721    0.721     0  00:53        1.39        1.39       0.098
  j05                  JUNCTION     0.382    0.382     0  01:16         1.4         1.4       0.193
  j03                  JUNCTION     0.335    0.335     0  00:51       0.645       0.645       0.129
  pfk6                 OUTFALL      1.106    1.106     0  00:57        3.02        3.02       0.000
  pfk4                 OUTFALL      0.000    2.142     0  00:56           0        4.14       0.000
  pfk2                 OUTFALL      0.000    0.614     0  00:50           0        1.19       0.000
  pfk1                 OUTFALL      0.000    0.723     0  00:53           0        1.39       0.000
  pfk5                 OUTFALL      0.000    0.382     0  01:16           0         1.4       0.000
  pfk3                 OUTFALL      0.000    0.335     0  00:51           0       0.645       0.000
  
  
  **********************
  Node Surcharge Summary
  **********************
  
  No nodes were surcharged.
  
  
  *********************
  Node Flooding Summary
  *********************
  
  No nodes were flooded.
  
  
  ***********************
  Outfall Loading Summary
  ***********************
  
  -----------------------------------------------------------
                         Flow       Avg       Max       Total
                         Freq      Flow      Flow      Volume
  Outfall Node           Pcnt       CMS       CMS    10^6 ltr
  -----------------------------------------------------------
  pfk6                  99.91     0.528     1.106       3.020
  pfk4                  99.20     0.741     2.142       4.138
  pfk2                  99.29     0.213     0.614       1.188
  pfk1                  99.42     0.247     0.723       1.386
  pfk5                  99.55     0.234     0.382       1.396
  pfk3                  99.46     0.114     0.335       0.645
  -----------------------------------------------------------
  System                99.47     2.077     4.842      11.772
  
  
  ********************
  Link Flow Summary
  ********************
  
  -----------------------------------------------------------------------------
                                 Maximum  Time of Max   Maximum    Max/    Max/
                                  |Flow|   Occurrence   |Veloc|    Full    Full
  Link                 Type          CMS  days hr:min     m/sec    Flow   Depth
  -----------------------------------------------------------------------------
  gq02                 CONDUIT     0.614     0  00:50      1.05    0.32    0.09
  gq04                 CONDUIT     2.142     0  00:56      1.77    1.07    0.16
  gq05                 CONDUIT     0.382     0  01:16      1.25    0.07    0.06
  gq03                 CONDUIT     0.335     0  00:51      1.23    0.05    0.05
  gq01                 CONDUIT     0.723     0  00:53      1.46    0.09    0.08
  
  
  ***************************
  Flow Classification Summary
  ***************************
  
  -------------------------------------------------------------------------------------
                      Adjusted    ---------- Fraction of Time in Flow Class ---------- 
                       /Actual         Up    Down  Sub   Sup   Up    Down  Norm  Inlet 
  Conduit               Length    Dry  Dry   Dry   Crit  Crit  Crit  Crit  Ltd   Ctrl  
  -------------------------------------------------------------------------------------
  gq02                    1.00   0.00  0.00  0.00  1.00  0.00  0.00  0.00  0.00  0.00
  gq04                    1.00   0.00  0.00  0.00  1.00  0.00  0.00  0.00  0.00  0.00
  gq05                    1.00   0.00  0.00  0.00  0.88  0.12  0.00  0.00  0.00  0.00
  gq03                    1.00   0.00  0.00  0.00  0.25  0.75  0.00  0.00  0.00  0.00
  gq01                    1.00   0.00  0.00  0.00  0.31  0.68  0.00  0.00  0.00  0.00
  
  
  *************************
  Conduit Surcharge Summary
  *************************
  
  ----------------------------------------------------------------------------
                                                           Hours        Hours 
                         --------- Hours Full --------   Above Full   Capacity
  Conduit                Both Ends  Upstream  Dnstream   Normal Flow   Limited
  ----------------------------------------------------------------------------
  gq04                        0.01      0.01      0.01      0.01         0.01
  

  Analysis begun on:  Mon May 15 16:52:22 2023
  Analysis ended on:  Mon May 15 16:52:22 2023
  Total elapsed time: < 1 sec