
  OWA STORM WATER MANAGEMENT MODEL - VERSION v5.2.1 (OWA 2023-03-28)
  ------------------------------------------------------------

  
  ****************
  Analysis Options
  ****************
  Flow Units ............... CMS
  Process Models:
    Rainfall/Runoff ........ YES
    RDII ................... NO
    Snowmelt ............... NO
    Groundwater ............ NO
    Flow Routing ........... YES
    Ponding Allowed ........ NO
    Water Quality .......... NO
  Infiltration Method ...... HORTON
  Flow Routing Method ...... DYNWAVE
  Surcharge Method ......... EXTRAN
  Starting Date ............ 05/02/2018 00:01:00
  Ending Date .............. 05/02/2018 01:59:00
  Antecedent Dry Days ...... 0.0
  Report Time Step ......... 00:01:00
  Wet Time Step ............ 00:01:00
  Dry Time Step ............ 00:01:00
  Routing Time Step ........ 30.00 sec
  Variable Time Step ....... YES
  Maximum Trials ........... 8
  Number of Threads ........ 1
  Head Tolerance ........... 0.005000 m
  
  
  **************************        Volume         Depth
  Runoff Quantity Continuity     hectare-m            mm
  **************************     ---------       -------
  Total Precipitation ......         2.081        99.281
  Evaporation Loss .........         0.000         0.000
  Infiltration Loss ........         0.270        12.889
  Surface Runoff ...........         1.434        68.390
  Final Storage ............         0.379        18.065
  Continuity Error (%) .....        -0.064
  
  
  **************************        Volume        Volume
  Flow Routing Continuity        hectare-m      10^6 ltr
  **************************     ---------     ---------
  Dry Weather Inflow .......         0.000         0.000
  Wet Weather Inflow .......         1.430        14.297
  Groundwater Inflow .......         0.000         0.000
  RDII Inflow ..............         0.000         0.000
  External Inflow ..........         0.000         0.000
  External Outflow .........         1.425        14.248
  Flooding Loss ............         0.000         0.000
  Evaporation Loss .........         0.000         0.000
  Exfiltration Loss ........         0.000         0.000
  Initial Stored Volume ....         0.000         0.000
  Final Stored Volume ......         0.008         0.079
  Continuity Error (%) .....        -0.213
  
  
  ***************************
  Time-Step Critical Elements
  ***************************
  Link gq01 (99.80%)
  
  
  ********************************
  Highest Flow Instability Indexes
  ********************************
  All links are stable.
  
  
  *********************************
  Most Frequent Nonconverging Nodes
  *********************************
  Convergence obtained at all time steps.
  
  
  *************************
  Routing Time Step Summary
  *************************
  Minimum Time Step           :     1.95 sec
  Average Time Step           :     2.80 sec
  Maximum Time Step           :    30.00 sec
  % of Time in Steady State   :     0.00
  Average Iterations per Step :     2.00
  % of Steps Not Converging   :     0.00
  Time Step Frequencies       :
     30.000 - 13.228 sec      :     0.16 %
     13.228 -  5.833 sec      :     1.98 %
      5.833 -  2.572 sec      :    42.82 %
      2.572 -  1.134 sec      :    55.05 %
      1.134 -  0.500 sec      :     0.00 %
  
  
  ***************************
  Subcatchment Runoff Summary
  ***************************
  
  ------------------------------------------------------------------------------------------------------------------------------
                            Total      Total      Total      Total     Imperv       Perv      Total       Total     Peak  Runoff
                           Precip      Runon       Evap      Infil     Runoff     Runoff     Runoff      Runoff   Runoff   Coeff
  Subcatchment                 mm         mm         mm         mm         mm         mm         mm    10^6 ltr      CMS
  ------------------------------------------------------------------------------------------------------------------------------
  S1                        99.28       0.00       0.00       5.58      70.77      16.58      87.36        0.79     0.40   0.880
  S2                        99.28     224.21       0.00      13.01     127.83     160.61     288.45        1.01     0.42   0.892
  S3                        99.28       0.00       0.00      10.73      48.32      30.01      78.33        0.24     0.11   0.789
  S4                        99.28       0.00       0.00      10.73      48.46      31.39      79.85        0.22     0.10   0.804
  S5                        99.28     517.75       0.00      12.17     268.90     306.48     575.38        1.63     0.63   0.933
  S6                        99.28      69.28       0.00       9.71      91.11      58.66     149.77        0.26     0.12   0.888
  S7                        99.28       0.00       0.00      11.80      43.78      35.55      79.33        0.12     0.06   0.799
  S8                        99.28     118.96       0.00      12.98      86.07     102.88     188.96        0.44     0.17   0.866
  S9                        99.28       0.00       0.00       9.66      53.18      28.18      81.36        0.28     0.13   0.819
  S10                       99.28      95.46       0.00       4.32     152.04      31.75     183.79        0.70     0.36   0.944
  S11                       99.28      44.51       0.00      10.77      70.04      47.83     117.87        0.89     0.36   0.820
  S12                       99.28       0.00       0.00       3.86      78.64      12.21      90.85        0.36     0.20   0.915
  S13                       99.28       0.00       0.00       8.37      58.75      24.18      82.93        0.34     0.16   0.835
  S14                       99.28       0.00       0.00      11.38      45.50      32.02      77.52        0.29     0.13   0.781
  S15                       99.28      52.88       0.00      10.56      75.72      51.84     127.56        0.71     0.28   0.838
  S16                       99.28      60.38       0.00       5.39     116.77      30.98     147.75        0.51     0.24   0.925
  S17                       99.28       0.00       0.00      10.73      48.47      31.51      79.98        0.21     0.10   0.806
  S18                       99.28      75.73       0.00       7.77     110.10      50.27     160.37        0.23     0.11   0.916
  S19                       99.28       0.00       0.00      12.02      42.83      36.46      79.30        0.11     0.05   0.799
  S34                       99.28      29.40       0.00      20.39       6.35      55.34      61.69        0.77     0.20   0.479
  S21                       99.28     106.24       0.00      12.31      86.66      85.79     172.45        1.03     0.38   0.839
  S22                       99.28      46.05       0.00       8.62      84.58      39.65     124.23        1.22     0.52   0.855
  S23                       99.28      42.71       0.00       8.62      82.71      38.85     121.56        1.05     0.45   0.856
  S24                       99.28      88.67       0.00       5.40     137.63      37.64     175.27        0.64     0.30   0.933
  S25                       99.28       0.00       0.00      10.30      50.27      29.37      79.64        0.32     0.15   0.802
  S26                       99.28       0.00       0.00       8.59      57.77      24.58      82.36        0.45     0.22   0.830
  S27                       99.28       0.00       0.00       8.59      57.90      25.22      83.13        0.37     0.18   0.837
  S28                       99.28       0.00       0.00       8.59      58.24      26.76      84.99        0.13     0.07   0.856
  S29                       99.28      60.09       0.00       8.63      93.79      48.79     142.58        0.31     0.15   0.895
  S30                       99.28     129.01       0.00       8.65     134.71      74.78     209.49        0.50     0.22   0.918
  S31                       99.28     504.30       0.00      12.15     262.93     298.42     561.35        1.14     0.41   0.930
  S32                       99.28     711.33       0.00      10.86     401.20     365.28     766.48        2.54     0.93   0.946
  S33                       99.28     235.16       0.00       8.66     197.20     112.76     309.96        1.37     0.56   0.927
  S20                       99.28     262.36       0.00       8.67     214.16     126.03     340.19        0.64     0.28   0.941
  S36                       99.28       0.00       0.00      18.89      11.74      48.90      60.63        0.18     0.06   0.611
  S37                       99.28       0.00       0.00      21.25       0.98      61.37      62.35        0.05     0.02   0.628
  S38                       99.28       0.00       0.00      21.03       1.97      60.84      62.81        0.04     0.01   0.633
  S39                       99.28      57.68       0.00      21.25       1.56     106.11     107.67        0.17     0.06   0.686
  S40                       99.28       0.00       0.00      21.46       0.00      62.35      62.35        0.05     0.02   0.628
  S73                       99.28       0.00       0.00      21.03       1.97      59.44      61.41        0.08     0.03   0.619
  S42                       99.28      42.17       0.00      19.75      11.20      85.54      96.74        0.18     0.06   0.684
  S43                       99.28       0.00       0.00      10.73      48.55      32.21      80.76        0.16     0.07   0.813
  S44                       99.28       0.00       0.00      17.17      19.57      50.72      70.28        0.07     0.03   0.708
  S45                       99.28       0.00       0.00      19.32       9.78      48.60      58.39        0.22     0.07   0.588
  S46                       99.28       0.00       0.00      21.46       0.00      58.60      58.60        0.09     0.03   0.590
  S47                       99.28       0.00       0.00      19.10      10.76      47.66      58.42        0.25     0.08   0.588
  S48                       99.28       0.00       0.00      19.53       8.81      51.53      60.34        0.15     0.05   0.608
  S49                       99.28     109.84       0.00      19.59      18.68     141.56     160.24        0.22     0.07   0.766
  S50                       99.28     146.20       0.00      21.55       0.00     197.05     197.05        0.11     0.04   0.803
  S51                       99.28       0.00       0.00      19.32       9.80      54.10      63.90        0.08     0.03   0.644
  S52                       99.28       0.00       0.00      21.46       0.00      63.27      63.27        0.04     0.02   0.637
  S53                       99.28       0.00       0.00      21.46       0.00      62.21      62.21        0.05     0.02   0.627
  S54                       99.28      45.17       0.00      15.93      37.09      78.13     115.22        0.10     0.04   0.798
  S55                       99.28       0.00       0.00      15.45      27.38      47.67      75.05        0.04     0.02   0.756
  S56                       99.28       0.00       0.00      10.73      48.70      33.60      82.31        0.07     0.03   0.829
  S57                       99.28     116.81       0.00      21.65       0.00     172.76     172.76        0.10     0.04   0.799
  S58                       99.28       0.00       0.00      14.60      31.09      38.81      69.90        0.28     0.10   0.704
  S59                       99.28      99.62       0.00      19.43      19.70     125.52     145.23        0.41     0.13   0.730
  S60                       99.28       0.00       0.00      11.80      43.62      33.52      77.15        0.27     0.12   0.777
  S61                       99.28      52.18       0.00      10.77      74.39      56.60     130.99        0.21     0.09   0.865
  S62                       99.28       0.00       0.00      14.60      31.21      43.19      74.41        0.08     0.03   0.749
  S63                       99.28       0.00       0.00      17.17      19.54      48.17      67.71        0.12     0.04   0.682
  S64                       99.28     226.97       0.00      17.32      64.78     217.15     281.93        0.29     0.10   0.864
  S65                       99.28       0.00       0.00      17.17      19.54      48.48      68.03        0.11     0.04   0.685
  S66                       99.28       0.00       0.00      19.32       9.81      58.28      68.09        0.03     0.01   0.686
  S67                       99.28      56.37       0.00      21.50       0.00     114.73     114.73        0.06     0.02   0.737
  S68                       99.28       0.00       0.00      21.46       0.00      67.50      67.50        0.01     0.00   0.680
  S69                       99.28     234.20       0.00      17.19      66.28     225.77     292.05        0.21     0.07   0.876
  S70                       99.28     223.23       0.00      20.44      16.06     255.03     271.10        0.16     0.06   0.841
  S71                       99.28       0.00       0.00      20.39       4.91      56.28      61.18        0.10     0.03   0.616
  S72                       99.28       0.00       0.00      21.46       0.00      64.38      64.38        0.03     0.01   0.648
  S35                       99.28      39.15       0.00      20.41       6.84      67.27      74.11        0.64     0.18   0.535
  S41                       99.28       0.00       0.00      21.46       0.00      46.29      46.29        0.32     0.10   0.466
  
  
  ******************
  Node Depth Summary
  ******************
  
  ---------------------------------------------------------------------------------
                                 Average  Maximum  Maximum  Time of Max    Reported
                                   Depth    Depth      HGL   Occurrence   Max Depth
  Node                 Type       Meters   Meters   Meters  days hr:min      Meters
  ---------------------------------------------------------------------------------
  j02                  JUNCTION     0.34     0.54     0.54     0  00:50        0.54
  j04                  JUNCTION     0.42     0.64     0.64     0  00:55        0.64
  j01                  JUNCTION     0.23     0.38     0.38     0  00:55        0.38
  j05                  JUNCTION     0.19     0.25     0.25     0  01:16        0.25
  j03                  JUNCTION     0.13     0.23     0.23     0  00:50        0.23
  pfk6                 OUTFALL      0.00     0.00     0.00     0  00:00        0.00
  pfk4                 OUTFALL      0.31     0.51     0.51     0  00:55        0.51
  pfk2                 OUTFALL      0.21     0.38     0.38     0  00:51        0.38
  pfk1                 OUTFALL      0.21     0.36     0.36     0  00:56        0.36
  pfk5                 OUTFALL      0.15     0.23     0.23     0  01:16        0.23
  pfk3                 OUTFALL      0.10     0.22     0.22     0  00:50        0.22
  
  
  *******************
  Node Inflow Summary
  *******************
  
  -------------------------------------------------------------------------------------------------
                                  Maximum  Maximum                  Lateral       Total        Flow
                                  Lateral    Total  Time of Max      Inflow      Inflow     Balance
                                   Inflow   Inflow   Occurrence      Volume      Volume       Error
  Node                 Type           CMS      CMS  days hr:min    10^6 ltr    10^6 ltr     Percent
  -------------------------------------------------------------------------------------------------
  j02                  JUNCTION     0.996    0.996     0  00:51        2.29        2.29       0.785
  j04                  JUNCTION     1.741    1.741     0  00:55        4.55        4.55       0.563
  j01                  JUNCTION     0.908    0.908     0  00:56        2.31        2.31       0.087
  j05                  JUNCTION     0.383    0.383     0  01:16         1.4         1.4       0.193
  j03                  JUNCTION     0.352    0.352     0  00:51        0.73        0.73       0.125
  pfk6                 OUTFALL      1.009    1.009     0  00:59        3.01        3.01       0.000
  pfk4                 OUTFALL      0.000    1.744     0  00:55           0        4.52       0.000
  pfk2                 OUTFALL      0.000    1.005     0  00:51           0        2.27       0.000
  pfk1                 OUTFALL      0.000    0.908     0  00:56           0        2.31       0.000
  pfk5                 OUTFALL      0.000    0.383     0  01:16           0         1.4       0.000
  pfk3                 OUTFALL      0.000    0.352     0  00:50           0       0.729       0.000
  
  
  **********************
  Node Surcharge Summary
  **********************
  
  No nodes were surcharged.
  
  
  *********************
  Node Flooding Summary
  *********************
  
  No nodes were flooded.
  
  
  ***********************
  Outfall Loading Summary
  ***********************
  
  -----------------------------------------------------------
                         Flow       Avg       Max       Total
                         Freq      Flow      Flow      Volume
  Outfall Node           Pcnt       CMS       CMS    10^6 ltr
  -----------------------------------------------------------
  pfk6                  99.92     0.524     1.009       3.009
  pfk4                  99.33     0.801     1.744       4.520
  pfk2                  99.41     0.401     1.005       2.275
  pfk1                  99.56     0.409     0.908       2.312
  pfk5                  99.53     0.235     0.383       1.402
  pfk3                  99.45     0.128     0.352       0.729
  -----------------------------------------------------------
  System                99.53     2.499     5.141      14.248
  
  
  ********************
  Link Flow Summary
  ********************
  
  -----------------------------------------------------------------------------
                                 Maximum  Time of Max   Maximum    Max/    Max/
                                  |Flow|   Occurrence   |Veloc|    Full    Full
  Link                 Type          CMS  days hr:min     m/sec    Flow   Depth
  -----------------------------------------------------------------------------
  gq02                 CONDUIT     1.005     0  00:51      1.26    0.52    0.11
  gq04                 CONDUIT     1.744     0  00:55      1.58    0.87    0.14
  gq05                 CONDUIT     0.383     0  01:16      1.25    0.07    0.06
  gq03                 CONDUIT     0.352     0  00:50      1.25    0.05    0.06
  gq01                 CONDUIT     0.908     0  00:56      1.56    0.12    0.09
  
  
  ***************************
  Flow Classification Summary
  ***************************
  
  -------------------------------------------------------------------------------------
                      Adjusted    ---------- Fraction of Time in Flow Class ---------- 
                       /Actual         Up    Down  Sub   Sup   Up    Down  Norm  Inlet 
  Conduit               Length    Dry  Dry   Dry   Crit  Crit  Crit  Crit  Ltd   Ctrl  
  -------------------------------------------------------------------------------------
  gq02                    1.00   0.00  0.00  0.00  1.00  0.00  0.00  0.00  0.00  0.00
  gq04                    1.00   0.00  0.00  0.00  1.00  0.00  0.00  0.00  0.00  0.00
  gq05                    1.00   0.00  0.00  0.00  0.88  0.12  0.00  0.00  0.00  0.00
  gq03                    1.00   0.00  0.00  0.00  0.25  0.74  0.00  0.00  0.00  0.00
  gq01                    1.00   0.00  0.00  0.00  0.52  0.47  0.00  0.00  0.00  0.00
  
  
  *************************
  Conduit Surcharge Summary
  *************************
  
  No conduits were surcharged.
  

  Analysis begun on:  Tue May 16 18:34:10 2023
  Analysis ended on:  Tue May 16 18:34:11 2023
  Total elapsed time: 00:00:01