
  OWA STORM WATER MANAGEMENT MODEL - VERSION v5.2.1 (OWA 2023-03-28)
  ------------------------------------------------------------

  
  ****************
  Analysis Options
  ****************
  Flow Units ............... CMS
  Process Models:
    Rainfall/Runoff ........ YES
    RDII ................... NO
    Snowmelt ............... NO
    Groundwater ............ NO
    Flow Routing ........... YES
    Ponding Allowed ........ NO
    Water Quality .......... NO
  Infiltration Method ...... HORTON
  Flow Routing Method ...... DYNWAVE
  Surcharge Method ......... EXTRAN
  Starting Date ............ 05/02/2018 00:01:00
  Ending Date .............. 05/02/2018 01:59:00
  Antecedent Dry Days ...... 0.0
  Report Time Step ......... 00:01:00
  Wet Time Step ............ 00:01:00
  Dry Time Step ............ 00:01:00
  Routing Time Step ........ 30.00 sec
  Variable Time Step ....... YES
  Maximum Trials ........... 8
  Number of Threads ........ 1
  Head Tolerance ........... 0.005000 m
  
  
  **************************        Volume         Depth
  Runoff Quantity Continuity     hectare-m            mm
  **************************     ---------       -------
  Total Precipitation ......         2.081        99.281
  Evaporation Loss .........         0.000         0.000
  Infiltration Loss ........         0.270        12.889
  Surface Runoff ...........         1.434        68.390
  Final Storage ............         0.379        18.065
  Continuity Error (%) .....        -0.064
  
  
  **************************        Volume        Volume
  Flow Routing Continuity        hectare-m      10^6 ltr
  **************************     ---------     ---------
  Dry Weather Inflow .......         0.000         0.000
  Wet Weather Inflow .......         1.430        14.297
  Groundwater Inflow .......         0.000         0.000
  RDII Inflow ..............         0.000         0.000
  External Inflow ..........         0.000         0.000
  External Outflow .........         1.425        14.248
  Flooding Loss ............         0.000         0.000
  Evaporation Loss .........         0.000         0.000
  Exfiltration Loss ........         0.000         0.000
  Initial Stored Volume ....         0.000         0.000
  Final Stored Volume ......         0.008         0.079
  Continuity Error (%) .....        -0.213
  
  
  ***************************
  Time-Step Critical Elements
  ***************************
  Link gq5 (99.80%)
  
  
  ********************************
  Highest Flow Instability Indexes
  ********************************
  All links are stable.
  
  
  *********************************
  Most Frequent Nonconverging Nodes
  *********************************
  Convergence obtained at all time steps.
  
  
  *************************
  Routing Time Step Summary
  *************************
  Minimum Time Step           :     1.95 sec
  Average Time Step           :     2.80 sec
  Maximum Time Step           :    30.00 sec
  % of Time in Steady State   :     0.00
  Average Iterations per Step :     2.00
  % of Steps Not Converging   :     0.00
  Time Step Frequencies       :
     30.000 - 13.228 sec      :     0.16 %
     13.228 -  5.833 sec      :     1.98 %
      5.833 -  2.572 sec      :    42.82 %
      2.572 -  1.134 sec      :    55.05 %
      1.134 -  0.500 sec      :     0.00 %
  
  
  ***************************
  Subcatchment Runoff Summary
  ***************************
  
  ------------------------------------------------------------------------------------------------------------------------------
                            Total      Total      Total      Total     Imperv       Perv      Total       Total     Peak  Runoff
                           Precip      Runon       Evap      Infil     Runoff     Runoff     Runoff      Runoff   Runoff   Coeff
  Subcatchment                 mm         mm         mm         mm         mm         mm         mm    10^6 ltr      CMS
  ------------------------------------------------------------------------------------------------------------------------------
  S1                        99.28       0.00       0.00       5.58      70.77      16.58      87.36        0.79     0.40   0.880
  S2                        99.28     224.21       0.00      13.01     127.83     160.61     288.45        1.01     0.42   0.892
  S3                        99.28       0.00       0.00      10.73      48.32      30.01      78.33        0.24     0.11   0.789
  S4                        99.28       0.00       0.00      10.73      48.46      31.39      79.85        0.22     0.10   0.804
  S5                        99.28     517.75       0.00      12.17     268.90     306.48     575.38        1.63     0.63   0.933
  S6                        99.28      69.28       0.00       9.71      91.11      58.66     149.77        0.26     0.12   0.888
  S7                        99.28       0.00       0.00      11.80      43.78      35.55      79.33        0.12     0.06   0.799
  S8                        99.28     118.96       0.00      12.98      86.07     102.88     188.96        0.44     0.17   0.866
  S9                        99.28       0.00       0.00       9.66      53.18      28.18      81.36        0.28     0.13   0.819
  S10                       99.28      95.46       0.00       4.32     152.04      31.75     183.79        0.70     0.36   0.944
  S11                       99.28      44.51       0.00      10.77      70.04      47.83     117.87        0.89     0.36   0.820
  S12                       99.28       0.00       0.00       3.86      78.64      12.21      90.85        0.36     0.20   0.915
  S13                       99.28       0.00       0.00       8.37      58.75      24.18      82.93        0.34     0.16   0.835
  S14                       99.28       0.00       0.00      11.38      45.50      32.02      77.52        0.29     0.13   0.781
  S15                       99.28      52.88       0.00      10.56      75.72      51.84     127.56        0.71     0.28   0.838
  S16                       99.28      60.38       0.00       5.39     116.77      30.98     147.75        0.51     0.24   0.925
  S17                       99.28       0.00       0.00      10.73      48.47      31.51      79.98        0.21     0.10   0.806
  S18                       99.28      75.73       0.00       7.77     110.10      50.27     160.37        0.23     0.11   0.916
  S19                       99.28       0.00       0.00      12.02      42.83      36.46      79.30        0.11     0.05   0.799
  S34                       99.28      29.40       0.00      20.39       6.35      55.34      61.69        0.77     0.20   0.479
  S21                       99.28     106.24       0.00      12.31      86.66      85.79     172.45        1.03     0.38   0.839
  S22                       99.28      46.05       0.00       8.62      84.58      39.65     124.23        1.22     0.52   0.855
  S23                       99.28      42.71       0.00       8.62      82.71      38.85     121.56        1.05     0.45   0.856
  S24                       99.28      88.67       0.00       5.40     137.63      37.64     175.27        0.64     0.30   0.933
  S25                       99.28       0.00       0.00      10.30      50.27      29.37      79.64        0.32     0.15   0.802
  S26                       99.28       0.00       0.00       8.59      57.77      24.58      82.36        0.45     0.22   0.830
  S27                       99.28       0.00       0.00       8.59      57.90      25.22      83.13        0.37     0.18   0.837
  S28                       99.28       0.00       0.00       8.59      58.24      26.76      84.99        0.13     0.07   0.856
  S29                       99.28      60.09       0.00       8.63      93.79      48.79     142.58        0.31     0.15   0.895
  S30                       99.28     129.01       0.00       8.65     134.71      74.78     209.49        0.50     0.22   0.918
  S31                       99.28     504.30       0.00      12.15     262.93     298.42     561.35        1.14     0.41   0.930
  S32                       99.28     711.33       0.00      10.86     401.20     365.28     766.48        2.54     0.93   0.946
  S33                       99.28     235.16       0.00       8.66     197.20     112.76     309.96        1.37     0.56   0.927
  S20                       99.28     262.36       0.00       8.67     214.16     126.03     340.19        0.64     0.28   0.941
  S36                       99.28       0.00       0.00      18.89      11.74      48.90      60.63        0.18     0.06   0.611
  S37                       99.28       0.00       0.00      21.25       0.98      61.37      62.35        0.05     0.02   0.628
  S38                       99.28       0.00       0.00      21.03       1.97      60.84      62.81        0.04     0.01   0.633
  S39                       99.28      57.68       0.00      21.25       1.56     106.11     107.67        0.17     0.06   0.686
  S40                       99.28       0.00       0.00      21.46       0.00      62.35      62.35        0.05     0.02   0.628
  S73                       99.28       0.00       0.00      21.03       1.97      59.44      61.41        0.08     0.03   0.619
  S42                       99.28      42.17       0.00      19.75      11.20      85.54      96.74        0.18     0.06   0.684
  S43                       99.28       0.00       0.00      10.73      48.55      32.21      80.76        0.16     0.07   0.813
  S44                       99.28       0.00       0.00      17.17      19.57      50.72      70.28        0.07     0.03   0.708
  S45                       99.28       0.00       0.00      19.32       9.78      48.60      58.39        0.22     0.07   0.588
  S46                       99.28       0.00       0.00      21.46       0.00      58.60      58.60        0.09     0.03   0.590
  S47                       99.28       0.00       0.00      19.10      10.76      47.66      58.42        0.25     0.08   0.588
  S48                       99.28       0.00       0.00      19.53       8.81      51.53      60.34        0.15     0.05   0.608
  S49                       99.28     109.84       0.00      19.59      18.68     141.56     160.24        0.22     0.07   0.766
  S50                       99.28     146.20       0.00      21.55       0.00     197.05     197.05        0.11     0.04   0.803
  S51                       99.28       0.00       0.00      19.32       9.80      54.10      63.90        0.08     0.03   0.644
  S52                       99.28       0.00       0.00      21.46       0.00      63.27      63.27        0.04     0.02   0.637
  S53                       99.28       0.00       0.00      21.46       0.00      62.21      62.21        0.05     0.02   0.627
  S54                       99.28      45.17       0.00      15.93      37.09      78.13     115.22        0.10     0.04   0.798
  S55                       99.28       0.00       0.00      15.45      27.38      47.67      75.05        0.04     0.02   0.756
  S56                       99.28       0.00       0.00      10.73      48.70      33.60      82.31        0.07     0.03   0.829
  S57                       99.28     116.81       0.00      21.65       0.00     172.76     172.76        0.10     0.04   0.799
  S58                       99.28       0.00       0.00      14.60      31.09      38.81      69.90        0.28     0.10   0.704
  S59                       99.28      99.62       0.00      19.43      19.70     125.52     145.23        0.41     0.13   0.730
  S60                       99.28       0.00       0.00      11.80      43.62      33.52      77.15        0.27     0.12   0.777
  S61                       99.28      52.18       0.00      10.77      74.39      56.60     130.99        0.21     0.09   0.865
  S62                       99.28       0.00       0.00      14.60      31.21      43.19      74.41        0.08     0.03   0.749
  S63                       99.28       0.00       0.00      17.17      19.54      48.17      67.71        0.12     0.04   0.682
  S64                       99.28     226.97       0.00      17.32      64.78     217.15     281.93        0.29     0.10   0.864
  S65                       99.28       0.00       0.00      17.17      19.54      48.48      68.03        0.11     0.04   0.685
  S66                       99.28       0.00       0.00      19.32       9.81      58.28      68.09        0.03     0.01   0.686
  S67                       99.28      56.37       0.00      21.50       0.00     114.73     114.73        0.06     0.02   0.737
  S68                       99.28       0.00       0.00      21.46       0.00      67.50      67.50        0.01     0.00   0.680
  S69                       99.28     234.20       0.00      17.19      66.28     225.77     292.05        0.21     0.07   0.876
  S70                       99.28     223.23       0.00      20.44      16.06     255.03     271.10        0.16     0.06   0.841
  S71                       99.28       0.00       0.00      20.39       4.91      56.28      61.18        0.10     0.03   0.616
  S72                       99.28       0.00       0.00      21.46       0.00      64.38      64.38        0.03     0.01   0.648
  S35                       99.28      39.15       0.00      20.41       6.84      67.27      74.11        0.64     0.18   0.535
  S41                       99.28       0.00       0.00      21.46       0.00      46.29      46.29        0.32     0.10   0.466
  
  
  ******************
  Node Depth Summary
  ******************
  
  ---------------------------------------------------------------------------------
                                 Average  Maximum  Maximum  Time of Max    Reported
                                   Depth    Depth      HGL   Occurrence   Max Depth
  Node                 Type       Meters   Meters   Meters  days hr:min      Meters
  ---------------------------------------------------------------------------------
  j1                   JUNCTION     0.34     0.54     0.54     0  00:50        0.54
  j2                   JUNCTION     0.42     0.64     0.64     0  00:55        0.64
  j3                   JUNCTION     0.23     0.38     0.38     0  00:55        0.38
  j4                   JUNCTION     0.19     0.25     0.25     0  01:16        0.25
  j5                   JUNCTION     0.13     0.23     0.23     0  00:50        0.23
  pfk1                 OUTFALL      0.00     0.00     0.00     0  00:00        0.00
  pfk2                 OUTFALL      0.00     0.00     0.00     0  00:00        0.00
  pfk3                 OUTFALL      0.00     0.00     0.00     0  00:00        0.00
  pfk4                 OUTFALL      0.31     0.51     0.51     0  00:55        0.51
  pfk5                 OUTFALL      0.21     0.38     0.38     0  00:51        0.38
  pfk6                 OUTFALL      0.21     0.36     0.36     0  00:56        0.36
  pfk7                 OUTFALL      0.15     0.23     0.23     0  01:16        0.23
  pfk8                 OUTFALL      0.10     0.22     0.22     0  00:50        0.22
  
  
  *******************
  Node Inflow Summary
  *******************
  
  -------------------------------------------------------------------------------------------------
                                  Maximum  Maximum                  Lateral       Total        Flow
                                  Lateral    Total  Time of Max      Inflow      Inflow     Balance
                                   Inflow   Inflow   Occurrence      Volume      Volume       Error
  Node                 Type           CMS      CMS  days hr:min    10^6 ltr    10^6 ltr     Percent
  -------------------------------------------------------------------------------------------------
  j1                   JUNCTION     0.996    0.996     0  00:51        2.29        2.29       0.785
  j2                   JUNCTION     1.741    1.741     0  00:55        4.55        4.55       0.563
  j3                   JUNCTION     0.908    0.908     0  00:56        2.31        2.31       0.087
  j4                   JUNCTION     0.383    0.383     0  01:16         1.4         1.4       0.193
  j5                   JUNCTION     0.352    0.352     0  00:51        0.73        0.73       0.125
  pfk1                 OUTFALL      0.350    0.350     0  01:02        1.07        1.07       0.000
  pfk2                 OUTFALL      0.111    0.111     0  00:59       0.296       0.296       0.000
  pfk3                 OUTFALL      0.557    0.557     0  00:57        1.64        1.64       0.000
  pfk4                 OUTFALL      0.000    1.744     0  00:55           0        4.52       0.000
  pfk5                 OUTFALL      0.000    1.005     0  00:51           0        2.27       0.000
  pfk6                 OUTFALL      0.000    0.908     0  00:56           0        2.31       0.000
  pfk7                 OUTFALL      0.000    0.383     0  01:16           0         1.4       0.000
  pfk8                 OUTFALL      0.000    0.352     0  00:50           0       0.729       0.000
  
  
  **********************
  Node Surcharge Summary
  **********************
  
  No nodes were surcharged.
  
  
  *********************
  Node Flooding Summary
  *********************
  
  No nodes were flooded.
  
  
  ***********************
  Outfall Loading Summary
  ***********************
  
  -----------------------------------------------------------
                         Flow       Avg       Max       Total
                         Freq      Flow      Flow      Volume
  Outfall Node           Pcnt       CMS       CMS    10^6 ltr
  -----------------------------------------------------------
  pfk1                  99.92     0.186     0.350       1.069
  pfk2                  99.84     0.052     0.111       0.296
  pfk3                  99.92     0.286     0.557       1.644
  pfk4                  99.33     0.801     1.744       4.520
  pfk5                  99.41     0.401     1.005       2.275
  pfk6                  99.56     0.409     0.908       2.312
  pfk7                  99.53     0.235     0.383       1.402
  pfk8                  99.45     0.128     0.352       0.729
  -----------------------------------------------------------
  System                99.62     2.499     5.141      14.248
  
  
  ********************
  Link Flow Summary
  ********************
  
  -----------------------------------------------------------------------------
                                 Maximum  Time of Max   Maximum    Max/    Max/
                                  |Flow|   Occurrence   |Veloc|    Full    Full
  Link                 Type          CMS  days hr:min     m/sec    Flow   Depth
  -----------------------------------------------------------------------------
  gq1                  CONDUIT     1.005     0  00:51      1.26    0.52    0.11
  2                    CONDUIT     1.744     0  00:55      1.58    0.87    0.14
  gq3                  CONDUIT     0.383     0  01:16      1.25    0.07    0.06
  gq4                  CONDUIT     0.352     0  00:50      1.25    0.05    0.06
  gq5                  CONDUIT     0.908     0  00:56      1.56    0.12    0.09
  
  
  ***************************
  Flow Classification Summary
  ***************************
  
  -------------------------------------------------------------------------------------
                      Adjusted    ---------- Fraction of Time in Flow Class ---------- 
                       /Actual         Up    Down  Sub   Sup   Up    Down  Norm  Inlet 
  Conduit               Length    Dry  Dry   Dry   Crit  Crit  Crit  Crit  Ltd   Ctrl  
  -------------------------------------------------------------------------------------
  gq1                     1.00   0.00  0.00  0.00  1.00  0.00  0.00  0.00  0.00  0.00
  2                       1.00   0.00  0.00  0.00  1.00  0.00  0.00  0.00  0.00  0.00
  gq3                     1.00   0.00  0.00  0.00  0.88  0.12  0.00  0.00  0.00  0.00
  gq4                     1.00   0.00  0.00  0.00  0.25  0.74  0.00  0.00  0.00  0.00
  gq5                     1.00   0.00  0.00  0.00  0.52  0.47  0.00  0.00  0.00  0.00
  
  
  *************************
  Conduit Surcharge Summary
  *************************
  
  No conduits were surcharged.
  
  
  ********************************
  Subcatchment Time Series Results
  ********************************
  
  <<< Subcatchment S1 >>>
  ---------------------------------------------------
  Date        Time        Precip.    Losses    Runoff
                            mm/hr     mm/hr       CMS
  ---------------------------------------------------
   05/02/2018 00:02:00     11.010     2.863    0.0000
   05/02/2018 00:03:00     11.406     2.966    0.0002
   05/02/2018 00:04:00     11.820     3.073    0.0004
   05/02/2018 00:05:00     12.258     3.187    0.0006
   05/02/2018 00:06:00     12.720     3.307    0.0009
   05/02/2018 00:07:00     13.206     3.434    0.0012
   05/02/2018 00:08:00     13.722     3.568    0.0016
   05/02/2018 00:09:00     14.268     3.710    0.0024
   05/02/2018 00:10:00     14.850     3.861    0.0035
   05/02/2018 00:11:00     15.462     4.020    0.0049
   05/02/2018 00:12:00     16.116     4.190    0.0064
   05/02/2018 00:13:00     16.812     4.371    0.0081
   05/02/2018 00:14:00     17.550     4.563    0.0100
   05/02/2018 00:15:00     18.342     4.769    0.0120
   05/02/2018 00:16:00     19.182     4.987    0.0140
   05/02/2018 00:17:00     20.082     5.221    0.0162
   05/02/2018 00:18:00     21.048     5.472    0.0184
   05/02/2018 00:19:00     22.080     5.741    0.0207
   05/02/2018 00:20:00     23.196     6.031    0.0230
   05/02/2018 00:21:00     24.390     6.341    0.0254
   05/02/2018 00:22:00     25.680     6.677    0.0279
   05/02/2018 00:23:00     27.078     7.040    0.0305
   05/02/2018 00:24:00     28.584     7.432    0.0331
   05/02/2018 00:25:00     30.222     7.858    0.0359
   05/02/2018 00:26:00     32.004     8.321    0.0387
   05/02/2018 00:27:00     33.942     8.825    0.0417
   05/02/2018 00:28:00     36.066     9.377    0.0449
   05/02/2018 00:29:00     38.388     9.936    0.0483
   05/02/2018 00:30:00     40.938     9.311    0.0520
   05/02/2018 00:31:00     43.752     8.727    0.0559
   05/02/2018 00:32:00     46.860     8.183    0.0601
   05/02/2018 00:33:00     50.310     7.675    0.0647
   05/02/2018 00:34:00     54.150     7.201    0.0698
   05/02/2018 00:35:00     58.446     6.758    0.0753
   05/02/2018 00:36:00     63.264     6.345    0.0815
   05/02/2018 00:37:00     68.700     5.959    0.0884
   05/02/2018 00:38:00     74.856     5.599    0.0961
   05/02/2018 00:39:00     81.876     5.263    0.1049
   05/02/2018 00:40:00     89.916     4.950    0.1152
   05/02/2018 00:41:00     99.192     4.657    0.1272
   05/02/2018 00:42:00    109.974     4.384    0.1413
   05/02/2018 00:43:00    122.592     4.129    0.1581
   05/02/2018 00:44:00    137.496     3.892    0.1779
   05/02/2018 00:45:00    155.274     3.670    0.2017
   05/02/2018 00:46:00    176.706     3.462    0.2304
   05/02/2018 00:47:00    202.866     3.269    0.2652
   05/02/2018 00:48:00    235.254     3.088    0.3082
   05/02/2018 00:49:00    212.880     2.920    0.3617
   05/02/2018 00:50:00    193.542     2.763    0.3889
   05/02/2018 00:51:00    176.706     2.616    0.3979
   05/02/2018 00:52:00    161.964     2.479    0.3952
   05/02/2018 00:53:00    148.986     2.351    0.3856
   05/02/2018 00:54:00    137.496     2.232    0.3720
   05/02/2018 00:55:00    127.284     2.120    0.3566
   05/02/2018 00:56:00    118.158     2.017    0.3404
   05/02/2018 00:57:00    109.974     1.920    0.3242
   05/02/2018 00:58:00    102.606     1.829    0.3084
   05/02/2018 00:59:00     95.952     1.744    0.2932
   05/02/2018 01:00:00     89.916     1.666    0.2787
   05/02/2018 01:01:00     84.432     1.592    0.2650
   05/02/2018 01:02:00     79.428     1.523    0.2521
   05/02/2018 01:03:00     74.856     1.459    0.2399
   05/02/2018 01:04:00     70.662     1.399    0.2284
   05/02/2018 01:05:00     66.810     1.343    0.2176
   05/02/2018 01:06:00     63.264     1.291    0.2075
   05/02/2018 01:07:00     59.988     1.243    0.1980
   05/02/2018 01:08:00     56.958     1.197    0.1890
   05/02/2018 01:09:00     54.150     1.155    0.1806
   05/02/2018 01:10:00     51.546     1.115    0.1727
   05/02/2018 01:11:00     49.122     1.078    0.1652
   05/02/2018 01:12:00     46.860     1.044    0.1582
   05/02/2018 01:13:00     44.754     1.012    0.1516
   05/02/2018 01:14:00     42.786     0.982    0.1453
   05/02/2018 01:15:00     40.938     0.954    0.1394
   05/02/2018 01:16:00     39.210     0.928    0.1339
   05/02/2018 01:17:00     37.590     0.903    0.1286
   05/02/2018 01:18:00     36.066     0.880    0.1236
   05/02/2018 01:19:00     34.632     0.859    0.1189
   05/02/2018 01:20:00     33.276     0.839    0.1144
   05/02/2018 01:21:00     32.004     0.821    0.1101
   05/02/2018 01:22:00     30.798     0.804    0.1061
   05/02/2018 01:23:00     29.664     0.787    0.1023
   05/02/2018 01:24:00     28.584     0.772    0.0986
   05/02/2018 01:25:00     27.564     0.758    0.0952
   05/02/2018 01:26:00     26.598     0.745    0.0919
   05/02/2018 01:27:00     25.680     0.733    0.0887
   05/02/2018 01:28:00     24.810     0.722    0.0858
   05/02/2018 01:29:00     23.982     0.711    0.0829
   05/02/2018 01:30:00     23.196     0.701    0.0802
   05/02/2018 01:31:00     22.446     0.692    0.0776
   05/02/2018 01:32:00     21.726     0.683    0.0751
   05/02/2018 01:33:00     21.048     0.675    0.0728
   05/02/2018 01:34:00     20.394     0.667    0.0705
   05/02/2018 01:35:00     19.776     0.660    0.0683
   05/02/2018 01:36:00     19.182     0.654    0.0663
   05/02/2018 01:37:00     18.612     0.648    0.0643
   05/02/2018 01:38:00     18.072     0.642    0.0624
   05/02/2018 01:39:00     17.550     0.636    0.0606
   05/02/2018 01:40:00     17.052     0.631    0.0588
   05/02/2018 01:41:00     16.572     0.627    0.0571
   05/02/2018 01:42:00     16.116     0.622    0.0555
   05/02/2018 01:43:00     15.678     0.618    0.0540
   05/02/2018 01:44:00     15.252     0.615    0.0525
   05/02/2018 01:45:00     14.850     0.611    0.0510
   05/02/2018 01:46:00     14.460     0.608    0.0497
   05/02/2018 01:47:00     14.082     0.605    0.0483
   05/02/2018 01:48:00     13.722     0.602    0.0471
   05/02/2018 01:49:00     13.374     0.599    0.0458
   05/02/2018 01:50:00     13.038     0.597    0.0447
   05/02/2018 01:51:00     12.720     0.594    0.0435
   05/02/2018 01:52:00     12.408     0.592    0.0424
   05/02/2018 01:53:00     12.108     0.590    0.0414
   05/02/2018 01:54:00     11.820     0.588    0.0403
   05/02/2018 01:55:00     11.538     0.586    0.0393
   05/02/2018 01:56:00     11.268     0.585    0.0384
   05/02/2018 01:57:00     11.010     0.583    0.0375
   05/02/2018 01:58:00     10.758     0.582    0.0366
   05/02/2018 01:59:00     10.518     0.582    0.0357
  
  
  <<< Subcatchment S2 >>>
  ---------------------------------------------------
  Date        Time        Precip.    Losses    Runoff
                            mm/hr     mm/hr       CMS
  ---------------------------------------------------
   05/02/2018 00:02:00     11.010     6.643    0.0000
   05/02/2018 00:03:00     11.406     6.962    0.0001
   05/02/2018 00:04:00     11.820     7.326    0.0002
   05/02/2018 00:05:00     12.258     7.734    0.0003
   05/02/2018 00:06:00     12.720     8.180    0.0005
   05/02/2018 00:07:00     13.206     8.662    0.0006
   05/02/2018 00:08:00     13.722     9.232    0.0008
   05/02/2018 00:09:00     14.268    10.057    0.0013
   05/02/2018 00:10:00     14.850    11.083    0.0020
   05/02/2018 00:11:00     15.462    12.276    0.0028
   05/02/2018 00:12:00     16.116    13.618    0.0037
   05/02/2018 00:13:00     16.812    15.089    0.0047
   05/02/2018 00:14:00     17.550    16.672    0.0058
   05/02/2018 00:15:00     18.342    18.360    0.0069
   05/02/2018 00:16:00     19.182    20.136    0.0082
   05/02/2018 00:17:00     20.082    21.999    0.0094
   05/02/2018 00:18:00     21.048    23.944    0.0108
   05/02/2018 00:19:00     22.080    25.969    0.0121
   05/02/2018 00:20:00     23.196    28.082    0.0135
   05/02/2018 00:21:00     24.390    26.335    0.0150
   05/02/2018 00:22:00     25.680    24.665    0.0164
   05/02/2018 00:23:00     27.078    23.107    0.0180
   05/02/2018 00:24:00     28.584    21.653    0.0196
   05/02/2018 00:25:00     30.222    20.296    0.0212
   05/02/2018 00:26:00     32.004    19.029    0.0229
   05/02/2018 00:27:00     33.942    17.847    0.0248
   05/02/2018 00:28:00     36.066    16.743    0.0267
   05/02/2018 00:29:00     38.388    15.713    0.0287
   05/02/2018 00:30:00     40.938    14.752    0.0311
   05/02/2018 00:31:00     43.752    13.855    0.0338
   05/02/2018 00:32:00     46.860    13.018    0.0369
   05/02/2018 00:33:00     50.310    12.236    0.0405
   05/02/2018 00:34:00     54.150    11.507    0.0446
   05/02/2018 00:35:00     58.446    10.826    0.0494
   05/02/2018 00:36:00     63.264    10.190    0.0548
   05/02/2018 00:37:00     68.700     9.597    0.0611
   05/02/2018 00:38:00     74.856     9.044    0.0683
   05/02/2018 00:39:00     81.876     8.527    0.0767
   05/02/2018 00:40:00     89.916     8.045    0.0863
   05/02/2018 00:41:00     99.192     7.595    0.0975
   05/02/2018 00:42:00    109.974     7.175    0.1106
   05/02/2018 00:43:00    122.592     6.783    0.1261
   05/02/2018 00:44:00    137.496     6.417    0.1444
   05/02/2018 00:45:00    155.274     6.076    0.1662
   05/02/2018 00:46:00    176.706     5.757    0.1924
   05/02/2018 00:47:00    202.866     5.460    0.2241
   05/02/2018 00:48:00    235.254     5.182    0.2628
   05/02/2018 00:49:00    212.880     4.923    0.3107
   05/02/2018 00:50:00    193.542     4.681    0.3506
   05/02/2018 00:51:00    176.706     4.456    0.3804
   05/02/2018 00:52:00    161.964     4.245    0.4008
   05/02/2018 00:53:00    148.986     4.048    0.4136
   05/02/2018 00:54:00    137.496     3.865    0.4204
   05/02/2018 00:55:00    127.284     3.694    0.4225
   05/02/2018 00:56:00    118.158     3.534    0.4211
   05/02/2018 00:57:00    109.974     3.384    0.4168
   05/02/2018 00:58:00    102.606     3.245    0.4104
   05/02/2018 00:59:00     95.952     3.115    0.4024
   05/02/2018 01:00:00     89.916     2.994    0.3931
   05/02/2018 01:01:00     84.432     2.881    0.3829
   05/02/2018 01:02:00     79.428     2.775    0.3720
   05/02/2018 01:03:00     74.856     2.676    0.3608
   05/02/2018 01:04:00     70.662     2.584    0.3494
   05/02/2018 01:05:00     66.810     2.499    0.3379
   05/02/2018 01:06:00     63.264     2.418    0.3264
   05/02/2018 01:07:00     59.988     2.344    0.3151
   05/02/2018 01:08:00     56.958     2.274    0.3040
   05/02/2018 01:09:00     54.150     2.208    0.2931
   05/02/2018 01:10:00     51.546     2.148    0.2826
   05/02/2018 01:11:00     49.122     2.091    0.2724
   05/02/2018 01:12:00     46.860     2.038    0.2625
   05/02/2018 01:13:00     44.754     1.988    0.2529
   05/02/2018 01:14:00     42.786     1.942    0.2438
   05/02/2018 01:15:00     40.938     1.899    0.2349
   05/02/2018 01:16:00     39.210     1.859    0.2265
   05/02/2018 01:17:00     37.590     1.821    0.2183
   05/02/2018 01:18:00     36.066     1.786    0.2106
   05/02/2018 01:19:00     34.632     1.754    0.2031
   05/02/2018 01:20:00     33.276     1.723    0.1960
   05/02/2018 01:21:00     32.004     1.695    0.1891
   05/02/2018 01:22:00     30.798     1.668    0.1826
   05/02/2018 01:23:00     29.664     1.643    0.1763
   05/02/2018 01:24:00     28.584     1.620    0.1703
   05/02/2018 01:25:00     27.564     1.599    0.1646
   05/02/2018 01:26:00     26.598     1.578    0.1591
   05/02/2018 01:27:00     25.680     1.560    0.1539
   05/02/2018 01:28:00     24.810     1.542    0.1488
   05/02/2018 01:29:00     23.982     1.526    0.1440
   05/02/2018 01:30:00     23.196     1.510    0.1394
   05/02/2018 01:31:00     22.446     1.496    0.1350
   05/02/2018 01:32:00     21.726     1.483    0.1308
   05/02/2018 01:33:00     21.048     1.470    0.1267
   05/02/2018 01:34:00     20.394     1.459    0.1228
   05/02/2018 01:35:00     19.776     1.448    0.1191
   05/02/2018 01:36:00     19.182     1.438    0.1155
   05/02/2018 01:37:00     18.612     1.428    0.1121
   05/02/2018 01:38:00     18.072     1.419    0.1088
   05/02/2018 01:39:00     17.550     1.411    0.1057
   05/02/2018 01:40:00     17.052     1.403    0.1026
   05/02/2018 01:41:00     16.572     1.396    0.0997
   05/02/2018 01:42:00     16.116     1.390    0.0969
   05/02/2018 01:43:00     15.678     1.383    0.0942
   05/02/2018 01:44:00     15.252     1.378    0.0916
   05/02/2018 01:45:00     14.850     1.372    0.0891
   05/02/2018 01:46:00     14.460     1.367    0.0867
   05/02/2018 01:47:00     14.082     1.362    0.0844
   05/02/2018 01:48:00     13.722     1.358    0.0821
   05/02/2018 01:49:00     13.374     1.354    0.0800
   05/02/2018 01:50:00     13.038     1.350    0.0779
   05/02/2018 01:51:00     12.720     1.346    0.0759
   05/02/2018 01:52:00     12.408     1.343    0.0739
   05/02/2018 01:53:00     12.108     1.340    0.0721
   05/02/2018 01:54:00     11.820     1.337    0.0703
   05/02/2018 01:55:00     11.538     1.334    0.0685
   05/02/2018 01:56:00     11.268     1.332    0.0669
   05/02/2018 01:57:00     11.010     1.329    0.0652
   05/02/2018 01:58:00     10.758     1.327    0.0637
   05/02/2018 01:59:00     10.518     1.327    0.0621
  
  
  <<< Subcatchment S3 >>>
  ---------------------------------------------------
  Date        Time        Precip.    Losses    Runoff
                            mm/hr     mm/hr       CMS
  ---------------------------------------------------
   05/02/2018 00:02:00     11.010     5.505    0.0000
   05/02/2018 00:03:00     11.406     5.703    0.0001
   05/02/2018 00:04:00     11.820     5.910    0.0002
   05/02/2018 00:05:00     12.258     6.129    0.0003
   05/02/2018 00:06:00     12.720     6.360    0.0004
   05/02/2018 00:07:00     13.206     6.603    0.0005
   05/02/2018 00:08:00     13.722     6.861    0.0006
   05/02/2018 00:09:00     14.268     7.134    0.0009
   05/02/2018 00:10:00     14.850     7.425    0.0013
   05/02/2018 00:11:00     15.462     7.731    0.0018
   05/02/2018 00:12:00     16.116     8.058    0.0024
   05/02/2018 00:13:00     16.812     8.406    0.0029
   05/02/2018 00:14:00     17.550     8.775    0.0035
   05/02/2018 00:15:00     18.342     9.171    0.0041
   05/02/2018 00:16:00     19.182     9.591    0.0047
   05/02/2018 00:17:00     20.082    10.041    0.0052
   05/02/2018 00:18:00     21.048    10.524    0.0058
   05/02/2018 00:19:00     22.080    11.040    0.0064
   05/02/2018 00:20:00     23.196    11.598    0.0069
   05/02/2018 00:21:00     24.390    12.195    0.0075
   05/02/2018 00:22:00     25.680    12.840    0.0080
   05/02/2018 00:23:00     27.078    13.539    0.0086
   05/02/2018 00:24:00     28.584    14.292    0.0092
   05/02/2018 00:25:00     30.222    15.111    0.0098
   05/02/2018 00:26:00     32.004    16.002    0.0104
   05/02/2018 00:27:00     33.942    16.971    0.0111
   05/02/2018 00:28:00     36.066    18.033    0.0118
   05/02/2018 00:29:00     38.388    19.107    0.0126
   05/02/2018 00:30:00     40.938    17.905    0.0135
   05/02/2018 00:31:00     43.752    16.783    0.0144
   05/02/2018 00:32:00     46.860    15.736    0.0154
   05/02/2018 00:33:00     50.310    14.759    0.0165
   05/02/2018 00:34:00     54.150    13.847    0.0178
   05/02/2018 00:35:00     58.446    12.996    0.0191
   05/02/2018 00:36:00     63.264    12.202    0.0206
   05/02/2018 00:37:00     68.700    11.460    0.0223
   05/02/2018 00:38:00     74.856    10.768    0.0243
   05/02/2018 00:39:00     81.876    10.122    0.0265
   05/02/2018 00:40:00     89.916     9.519    0.0291
   05/02/2018 00:41:00     99.192     8.956    0.0323
   05/02/2018 00:42:00    109.974     8.431    0.0361
   05/02/2018 00:43:00    122.592     7.941    0.0406
   05/02/2018 00:44:00    137.496     7.484    0.0461
   05/02/2018 00:45:00    155.274     7.057    0.0527
   05/02/2018 00:46:00    176.706     6.658    0.0607
   05/02/2018 00:47:00    202.866     6.286    0.0707
   05/02/2018 00:48:00    235.254     5.939    0.0829
   05/02/2018 00:49:00    212.880     5.615    0.0984
   05/02/2018 00:50:00    193.542     5.313    0.1046
   05/02/2018 00:51:00    176.706     5.031    0.1058
   05/02/2018 00:52:00    161.964     4.767    0.1044
   05/02/2018 00:53:00    148.986     4.521    0.1018
   05/02/2018 00:54:00    137.496     4.292    0.0987
   05/02/2018 00:55:00    127.284     4.078    0.0954
   05/02/2018 00:56:00    118.158     3.878    0.0922
   05/02/2018 00:57:00    109.974     3.691    0.0890
   05/02/2018 00:58:00    102.606     3.517    0.0859
   05/02/2018 00:59:00     95.952     3.355    0.0829
   05/02/2018 01:00:00     89.916     3.203    0.0800
   05/02/2018 01:01:00     84.432     3.062    0.0772
   05/02/2018 01:02:00     79.428     2.929    0.0745
   05/02/2018 01:03:00     74.856     2.806    0.0719
   05/02/2018 01:04:00     70.662     2.691    0.0694
   05/02/2018 01:05:00     66.810     2.584    0.0670
   05/02/2018 01:06:00     63.264     2.483    0.0647
   05/02/2018 01:07:00     59.988     2.390    0.0625
   05/02/2018 01:08:00     56.958     2.302    0.0603
   05/02/2018 01:09:00     54.150     2.221    0.0582
   05/02/2018 01:10:00     51.546     2.145    0.0563
   05/02/2018 01:11:00     49.122     2.074    0.0543
   05/02/2018 01:12:00     46.860     2.008    0.0525
   05/02/2018 01:13:00     44.754     1.946    0.0507
   05/02/2018 01:14:00     42.786     1.888    0.0490
   05/02/2018 01:15:00     40.938     1.834    0.0474
   05/02/2018 01:16:00     39.210     1.784    0.0458
   05/02/2018 01:17:00     37.590     1.737    0.0443
   05/02/2018 01:18:00     36.066     1.693    0.0429
   05/02/2018 01:19:00     34.632     1.652    0.0415
   05/02/2018 01:20:00     33.276     1.614    0.0402
   05/02/2018 01:21:00     32.004     1.579    0.0389
   05/02/2018 01:22:00     30.798     1.545    0.0377
   05/02/2018 01:23:00     29.664     1.514    0.0365
   05/02/2018 01:24:00     28.584     1.485    0.0354
   05/02/2018 01:25:00     27.564     1.458    0.0343
   05/02/2018 01:26:00     26.598     1.433    0.0332
   05/02/2018 01:27:00     25.680     1.410    0.0322
   05/02/2018 01:28:00     24.810     1.388    0.0312
   05/02/2018 01:29:00     23.982     1.367    0.0303
   05/02/2018 01:30:00     23.196     1.348    0.0294
   05/02/2018 01:31:00     22.446     1.330    0.0286
   05/02/2018 01:32:00     21.726     1.313    0.0277
   05/02/2018 01:33:00     21.048     1.298    0.0269
   05/02/2018 01:34:00     20.394     1.283    0.0262
   05/02/2018 01:35:00     19.776     1.270    0.0254
   05/02/2018 01:36:00     19.182     1.257    0.0247
   05/02/2018 01:37:00     18.612     1.245    0.0240
   05/02/2018 01:38:00     18.072     1.234    0.0234
   05/02/2018 01:39:00     17.550     1.224    0.0227
   05/02/2018 01:40:00     17.052     1.214    0.0221
   05/02/2018 01:41:00     16.572     1.205    0.0215
   05/02/2018 01:42:00     16.116     1.197    0.0210
   05/02/2018 01:43:00     15.678     1.189    0.0204
   05/02/2018 01:44:00     15.252     1.182    0.0199
   05/02/2018 01:45:00     14.850     1.175    0.0194
   05/02/2018 01:46:00     14.460     1.169    0.0189
   05/02/2018 01:47:00     14.082     1.163    0.0184
   05/02/2018 01:48:00     13.722     1.157    0.0179
   05/02/2018 01:49:00     13.374     1.152    0.0175
   05/02/2018 01:50:00     13.038     1.147    0.0170
   05/02/2018 01:51:00     12.720     1.143    0.0166
   05/02/2018 01:52:00     12.408     1.139    0.0162
   05/02/2018 01:53:00     12.108     1.135    0.0158
   05/02/2018 01:54:00     11.820     1.131    0.0154
   05/02/2018 01:55:00     11.538     1.128    0.0151
   05/02/2018 01:56:00     11.268     1.125    0.0147
   05/02/2018 01:57:00     11.010     1.122    0.0144
   05/02/2018 01:58:00     10.758     1.119    0.0140
   05/02/2018 01:59:00     10.518     1.119    0.0137
  
  
  <<< Subcatchment S4 >>>
  ---------------------------------------------------
  Date        Time        Precip.    Losses    Runoff
                            mm/hr     mm/hr       CMS
  ---------------------------------------------------
   05/02/2018 00:02:00     11.010     5.505    0.0000
   05/02/2018 00:03:00     11.406     5.703    0.0001
   05/02/2018 00:04:00     11.820     5.910    0.0002
   05/02/2018 00:05:00     12.258     6.129    0.0003
   05/02/2018 00:06:00     12.720     6.360    0.0004
   05/02/2018 00:07:00     13.206     6.603    0.0005
   05/02/2018 00:08:00     13.722     6.861    0.0007
   05/02/2018 00:09:00     14.268     7.134    0.0010
   05/02/2018 00:10:00     14.850     7.425    0.0015
   05/02/2018 00:11:00     15.462     7.731    0.0020
   05/02/2018 00:12:00     16.116     8.058    0.0025
   05/02/2018 00:13:00     16.812     8.406    0.0031
   05/02/2018 00:14:00     17.550     8.775    0.0037
   05/02/2018 00:15:00     18.342     9.171    0.0042
   05/02/2018 00:16:00     19.182     9.591    0.0047
   05/02/2018 00:17:00     20.082    10.041    0.0052
   05/02/2018 00:18:00     21.048    10.524    0.0057
   05/02/2018 00:19:00     22.080    11.040    0.0062
   05/02/2018 00:20:00     23.196    11.598    0.0067
   05/02/2018 00:21:00     24.390    12.195    0.0072
   05/02/2018 00:22:00     25.680    12.840    0.0076
   05/02/2018 00:23:00     27.078    13.539    0.0081
   05/02/2018 00:24:00     28.584    14.292    0.0087
   05/02/2018 00:25:00     30.222    15.111    0.0092
   05/02/2018 00:26:00     32.004    16.002    0.0098
   05/02/2018 00:27:00     33.942    16.971    0.0104
   05/02/2018 00:28:00     36.066    18.033    0.0110
   05/02/2018 00:29:00     38.388    19.107    0.0117
   05/02/2018 00:30:00     40.938    17.905    0.0125
   05/02/2018 00:31:00     43.752    16.783    0.0134
   05/02/2018 00:32:00     46.860    15.736    0.0143
   05/02/2018 00:33:00     50.310    14.759    0.0153
   05/02/2018 00:34:00     54.150    13.847    0.0164
   05/02/2018 00:35:00     58.446    12.996    0.0177
   05/02/2018 00:36:00     63.264    12.202    0.0191
   05/02/2018 00:37:00     68.700    11.460    0.0207
   05/02/2018 00:38:00     74.856    10.768    0.0225
   05/02/2018 00:39:00     81.876    10.122    0.0245
   05/02/2018 00:40:00     89.916     9.519    0.0270
   05/02/2018 00:41:00     99.192     8.956    0.0300
   05/02/2018 00:42:00    109.974     8.431    0.0336
   05/02/2018 00:43:00    122.592     7.941    0.0380
   05/02/2018 00:44:00    137.496     7.484    0.0433
   05/02/2018 00:45:00    155.274     7.057    0.0497
   05/02/2018 00:46:00    176.706     6.658    0.0575
   05/02/2018 00:47:00    202.866     6.286    0.0672
   05/02/2018 00:48:00    235.254     5.939    0.0791
   05/02/2018 00:49:00    212.880     5.615    0.0941
   05/02/2018 00:50:00    193.542     5.313    0.0995
   05/02/2018 00:51:00    176.706     5.031    0.1000
   05/02/2018 00:52:00    161.964     4.767    0.0983
   05/02/2018 00:53:00    148.986     4.521    0.0957
   05/02/2018 00:54:00    137.496     4.292    0.0928
   05/02/2018 00:55:00    127.284     4.078    0.0897
   05/02/2018 00:56:00    118.158     3.878    0.0866
   05/02/2018 00:57:00    109.974     3.691    0.0835
   05/02/2018 00:58:00    102.606     3.517    0.0805
   05/02/2018 00:59:00     95.952     3.355    0.0776
   05/02/2018 01:00:00     89.916     3.203    0.0748
   05/02/2018 01:01:00     84.432     3.062    0.0720
   05/02/2018 01:02:00     79.428     2.929    0.0694
   05/02/2018 01:03:00     74.856     2.806    0.0668
   05/02/2018 01:04:00     70.662     2.691    0.0643
   05/02/2018 01:05:00     66.810     2.584    0.0619
   05/02/2018 01:06:00     63.264     2.483    0.0596
   05/02/2018 01:07:00     59.988     2.390    0.0573
   05/02/2018 01:08:00     56.958     2.302    0.0552
   05/02/2018 01:09:00     54.150     2.221    0.0531
   05/02/2018 01:10:00     51.546     2.145    0.0512
   05/02/2018 01:11:00     49.122     2.074    0.0493
   05/02/2018 01:12:00     46.860     2.008    0.0475
   05/02/2018 01:13:00     44.754     1.946    0.0457
   05/02/2018 01:14:00     42.786     1.888    0.0441
   05/02/2018 01:15:00     40.938     1.834    0.0425
   05/02/2018 01:16:00     39.210     1.784    0.0410
   05/02/2018 01:17:00     37.590     1.737    0.0395
   05/02/2018 01:18:00     36.066     1.693    0.0381
   05/02/2018 01:19:00     34.632     1.652    0.0368
   05/02/2018 01:20:00     33.276     1.614    0.0355
   05/02/2018 01:21:00     32.004     1.579    0.0343
   05/02/2018 01:22:00     30.798     1.545    0.0332
   05/02/2018 01:23:00     29.664     1.514    0.0321
   05/02/2018 01:24:00     28.584     1.485    0.0310
   05/02/2018 01:25:00     27.564     1.458    0.0300
   05/02/2018 01:26:00     26.598     1.433    0.0290
   05/02/2018 01:27:00     25.680     1.410    0.0281
   05/02/2018 01:28:00     24.810     1.388    0.0272
   05/02/2018 01:29:00     23.982     1.367    0.0263
   05/02/2018 01:30:00     23.196     1.348    0.0255
   05/02/2018 01:31:00     22.446     1.330    0.0247
   05/02/2018 01:32:00     21.726     1.313    0.0240
   05/02/2018 01:33:00     21.048     1.298    0.0232
   05/02/2018 01:34:00     20.394     1.283    0.0225
   05/02/2018 01:35:00     19.776     1.270    0.0219
   05/02/2018 01:36:00     19.182     1.257    0.0212
   05/02/2018 01:37:00     18.612     1.245    0.0206
   05/02/2018 01:38:00     18.072     1.234    0.0200
   05/02/2018 01:39:00     17.550     1.224    0.0194
   05/02/2018 01:40:00     17.052     1.214    0.0189
   05/02/2018 01:41:00     16.572     1.205    0.0184
   05/02/2018 01:42:00     16.116     1.197    0.0179
   05/02/2018 01:43:00     15.678     1.189    0.0174
   05/02/2018 01:44:00     15.252     1.182    0.0169
   05/02/2018 01:45:00     14.850     1.175    0.0164
   05/02/2018 01:46:00     14.460     1.169    0.0160
   05/02/2018 01:47:00     14.082     1.163    0.0156
   05/02/2018 01:48:00     13.722     1.157    0.0152
   05/02/2018 01:49:00     13.374     1.152    0.0148
   05/02/2018 01:50:00     13.038     1.147    0.0144
   05/02/2018 01:51:00     12.720     1.143    0.0140
   05/02/2018 01:52:00     12.408     1.139    0.0137
   05/02/2018 01:53:00     12.108     1.135    0.0133
   05/02/2018 01:54:00     11.820     1.131    0.0130
   05/02/2018 01:55:00     11.538     1.128    0.0127
   05/02/2018 01:56:00     11.268     1.125    0.0124
   05/02/2018 01:57:00     11.010     1.122    0.0121
   05/02/2018 01:58:00     10.758     1.119    0.0118
   05/02/2018 01:59:00     10.518     1.119    0.0115
  
  
  <<< Subcatchment S5 >>>
  ---------------------------------------------------
  Date        Time        Precip.    Losses    Runoff
                            mm/hr     mm/hr       CMS
  ---------------------------------------------------
   05/02/2018 00:02:00     11.010     6.231    0.0000
   05/02/2018 00:03:00     11.406     6.594    0.0001
   05/02/2018 00:04:00     11.820     7.016    0.0002
   05/02/2018 00:05:00     12.258     7.486    0.0003
   05/02/2018 00:06:00     12.720     7.989    0.0004
   05/02/2018 00:07:00     13.206     8.517    0.0005
   05/02/2018 00:08:00     13.722     9.195    0.0008
   05/02/2018 00:09:00     14.268    10.300    0.0013
   05/02/2018 00:10:00     14.850    11.708    0.0019
   05/02/2018 00:11:00     15.462    13.336    0.0028
   05/02/2018 00:12:00     16.116    15.133    0.0038
   05/02/2018 00:13:00     16.812    17.052    0.0049
   05/02/2018 00:14:00     17.550    19.060    0.0062
   05/02/2018 00:15:00     18.342    21.138    0.0076
   05/02/2018 00:16:00     19.182    23.270    0.0090
   05/02/2018 00:17:00     20.082    25.452    0.0105
   05/02/2018 00:18:00     21.048    27.407    0.0120
   05/02/2018 00:19:00     22.080    25.660    0.0135
   05/02/2018 00:20:00     23.196    24.030    0.0151
   05/02/2018 00:21:00     24.390    22.508    0.0167
   05/02/2018 00:22:00     25.680    21.088    0.0183
   05/02/2018 00:23:00     27.078    19.763    0.0199
   05/02/2018 00:24:00     28.584    18.526    0.0216
   05/02/2018 00:25:00     30.222    17.371    0.0233
   05/02/2018 00:26:00     32.004    16.294    0.0251
   05/02/2018 00:27:00     33.942    15.288    0.0270
   05/02/2018 00:28:00     36.066    14.349    0.0293
   05/02/2018 00:29:00     38.388    13.473    0.0318
   05/02/2018 00:30:00     40.938    12.656    0.0346
   05/02/2018 00:31:00     43.752    11.893    0.0380
   05/02/2018 00:32:00     46.860    11.180    0.0418
   05/02/2018 00:33:00     50.310    10.516    0.0462
   05/02/2018 00:34:00     54.150     9.895    0.0513
   05/02/2018 00:35:00     58.446     9.316    0.0573
   05/02/2018 00:36:00     63.264     8.776    0.0641
   05/02/2018 00:37:00     68.700     8.271    0.0721
   05/02/2018 00:38:00     74.856     7.800    0.0812
   05/02/2018 00:39:00     81.876     7.361    0.0919
   05/02/2018 00:40:00     89.916     6.951    0.1042
   05/02/2018 00:41:00     99.192     6.568    0.1186
   05/02/2018 00:42:00    109.974     6.211    0.1356
   05/02/2018 00:43:00    122.592     5.877    0.1556
   05/02/2018 00:44:00    137.496     5.566    0.1794
   05/02/2018 00:45:00    155.274     5.276    0.2078
   05/02/2018 00:46:00    176.706     5.004    0.2420
   05/02/2018 00:47:00    202.866     4.751    0.2835
   05/02/2018 00:48:00    235.254     4.515    0.3344
   05/02/2018 00:49:00    212.880     4.295    0.3973
   05/02/2018 00:50:00    193.542     4.089    0.4568
   05/02/2018 00:51:00    176.706     3.897    0.5069
   05/02/2018 00:52:00    161.964     3.718    0.5470
   05/02/2018 00:53:00    148.986     3.551    0.5779
   05/02/2018 00:54:00    137.496     3.395    0.6010
   05/02/2018 00:55:00    127.284     3.249    0.6174
   05/02/2018 00:56:00    118.158     3.113    0.6280
   05/02/2018 00:57:00    109.974     2.986    0.6335
   05/02/2018 00:58:00    102.606     2.868    0.6347
   05/02/2018 00:59:00     95.952     2.757    0.6322
   05/02/2018 01:00:00     89.916     2.654    0.6266
   05/02/2018 01:01:00     84.432     2.558    0.6183
   05/02/2018 01:02:00     79.428     2.468    0.6080
   05/02/2018 01:03:00     74.856     2.384    0.5961
   05/02/2018 01:04:00     70.662     2.306    0.5828
   05/02/2018 01:05:00     66.810     2.233    0.5686
   05/02/2018 01:06:00     63.264     2.164    0.5538
   05/02/2018 01:07:00     59.988     2.101    0.5384
   05/02/2018 01:08:00     56.958     2.041    0.5229
   05/02/2018 01:09:00     54.150     1.986    0.5072
   05/02/2018 01:10:00     51.546     1.934    0.4916
   05/02/2018 01:11:00     49.122     1.886    0.4762
   05/02/2018 01:12:00     46.860     1.841    0.4610
   05/02/2018 01:13:00     44.754     1.799    0.4461
   05/02/2018 01:14:00     42.786     1.759    0.4315
   05/02/2018 01:15:00     40.938     1.723    0.4173
   05/02/2018 01:16:00     39.210     1.688    0.4036
   05/02/2018 01:17:00     37.590     1.657    0.3902
   05/02/2018 01:18:00     36.066     1.627    0.3773
   05/02/2018 01:19:00     34.632     1.599    0.3648
   05/02/2018 01:20:00     33.276     1.573    0.3528
   05/02/2018 01:21:00     32.004     1.549    0.3412
   05/02/2018 01:22:00     30.798     1.526    0.3300
   05/02/2018 01:23:00     29.664     1.505    0.3193
   05/02/2018 01:24:00     28.584     1.485    0.3089
   05/02/2018 01:25:00     27.564     1.467    0.2990
   05/02/2018 01:26:00     26.598     1.450    0.2894
   05/02/2018 01:27:00     25.680     1.434    0.2803
   05/02/2018 01:28:00     24.810     1.419    0.2714
   05/02/2018 01:29:00     23.982     1.405    0.2630
   05/02/2018 01:30:00     23.196     1.392    0.2548
   05/02/2018 01:31:00     22.446     1.380    0.2470
   05/02/2018 01:32:00     21.726     1.368    0.2395
   05/02/2018 01:33:00     21.048     1.358    0.2322
   05/02/2018 01:34:00     20.394     1.348    0.2253
   05/02/2018 01:35:00     19.776     1.339    0.2186
   05/02/2018 01:36:00     19.182     1.330    0.2122
   05/02/2018 01:37:00     18.612     1.322    0.2060
   05/02/2018 01:38:00     18.072     1.315    0.2001
   05/02/2018 01:39:00     17.550     1.308    0.1944
   05/02/2018 01:40:00     17.052     1.301    0.1889
   05/02/2018 01:41:00     16.572     1.295    0.1836
   05/02/2018 01:42:00     16.116     1.289    0.1785
   05/02/2018 01:43:00     15.678     1.284    0.1736
   05/02/2018 01:44:00     15.252     1.279    0.1689
   05/02/2018 01:45:00     14.850     1.274    0.1643
   05/02/2018 01:46:00     14.460     1.270    0.1599
   05/02/2018 01:47:00     14.082     1.266    0.1557
   05/02/2018 01:48:00     13.722     1.262    0.1516
   05/02/2018 01:49:00     13.374     1.259    0.1476
   05/02/2018 01:50:00     13.038     1.255    0.1438
   05/02/2018 01:51:00     12.720     1.252    0.1402
   05/02/2018 01:52:00     12.408     1.250    0.1366
   05/02/2018 01:53:00     12.108     1.247    0.1332
   05/02/2018 01:54:00     11.820     1.244    0.1299
   05/02/2018 01:55:00     11.538     1.242    0.1267
   05/02/2018 01:56:00     11.268     1.240    0.1236
   05/02/2018 01:57:00     11.010     1.238    0.1206
   05/02/2018 01:58:00     10.758     1.236    0.1177
   05/02/2018 01:59:00     10.518     1.236    0.1149
  
  
  <<< Subcatchment S6 >>>
  ---------------------------------------------------
  Date        Time        Precip.    Losses    Runoff
                            mm/hr     mm/hr       CMS
  ---------------------------------------------------
   05/02/2018 00:02:00     11.010     4.976    0.0000
   05/02/2018 00:03:00     11.406     5.199    0.0001
   05/02/2018 00:04:00     11.820     5.443    0.0001
   05/02/2018 00:05:00     12.258     5.703    0.0002
   05/02/2018 00:06:00     12.720     5.974    0.0003
   05/02/2018 00:07:00     13.206     6.254    0.0004
   05/02/2018 00:08:00     13.722     6.576    0.0005
   05/02/2018 00:09:00     14.268     7.030    0.0008
   05/02/2018 00:10:00     14.850     7.567    0.0012
   05/02/2018 00:11:00     15.462     8.147    0.0017
   05/02/2018 00:12:00     16.116     8.749    0.0022
   05/02/2018 00:13:00     16.812     9.357    0.0028
   05/02/2018 00:14:00     17.550     9.966    0.0033
   05/02/2018 00:15:00     18.342    10.578    0.0039
   05/02/2018 00:16:00     19.182    11.193    0.0044
   05/02/2018 00:17:00     20.082    11.819    0.0049
   05/02/2018 00:18:00     21.048    12.465    0.0054
   05/02/2018 00:19:00     22.080    13.135    0.0059
   05/02/2018 00:20:00     23.196    13.841    0.0064
   05/02/2018 00:21:00     24.390    14.585    0.0068
   05/02/2018 00:22:00     25.680    15.377    0.0073
   05/02/2018 00:23:00     27.078    16.228    0.0078
   05/02/2018 00:24:00     28.584    17.139    0.0083
   05/02/2018 00:25:00     30.222    18.124    0.0088
   05/02/2018 00:26:00     32.004    17.131    0.0093
   05/02/2018 00:27:00     33.942    16.054    0.0099
   05/02/2018 00:28:00     36.066    15.048    0.0105
   05/02/2018 00:29:00     38.388    14.110    0.0112
   05/02/2018 00:30:00     40.938    13.234    0.0119
   05/02/2018 00:31:00     43.752    12.416    0.0127
   05/02/2018 00:32:00     46.860    11.653    0.0136
   05/02/2018 00:33:00     50.310    10.941    0.0146
   05/02/2018 00:34:00     54.150    10.277    0.0157
   05/02/2018 00:35:00     58.446     9.656    0.0169
   05/02/2018 00:36:00     63.264     9.077    0.0183
   05/02/2018 00:37:00     68.700     8.537    0.0200
   05/02/2018 00:38:00     74.856     8.032    0.0220
   05/02/2018 00:39:00     81.876     7.562    0.0245
   05/02/2018 00:40:00     89.916     7.122    0.0273
   05/02/2018 00:41:00     99.192     6.712    0.0307
   05/02/2018 00:42:00    109.974     6.330    0.0348
   05/02/2018 00:43:00    122.592     5.972    0.0397
   05/02/2018 00:44:00    137.496     5.639    0.0456
   05/02/2018 00:45:00    155.274     5.328    0.0528
   05/02/2018 00:46:00    176.706     5.037    0.0614
   05/02/2018 00:47:00    202.866     4.766    0.0720
   05/02/2018 00:48:00    235.254     4.513    0.0851
   05/02/2018 00:49:00    212.880     4.277    0.1014
   05/02/2018 00:50:00    193.542     4.057    0.1106
   05/02/2018 00:51:00    176.706     3.851    0.1145
   05/02/2018 00:52:00    161.964     3.659    0.1153
   05/02/2018 00:53:00    148.986     3.480    0.1143
   05/02/2018 00:54:00    137.496     3.313    0.1125
   05/02/2018 00:55:00    127.284     3.157    0.1100
   05/02/2018 00:56:00    118.158     3.011    0.1072
   05/02/2018 00:57:00    109.974     2.875    0.1042
   05/02/2018 00:58:00    102.606     2.748    0.1010
   05/02/2018 00:59:00     95.952     2.630    0.0978
   05/02/2018 01:00:00     89.916     2.519    0.0945
   05/02/2018 01:01:00     84.432     2.416    0.0912
   05/02/2018 01:02:00     79.428     2.320    0.0879
   05/02/2018 01:03:00     74.856     2.230    0.0847
   05/02/2018 01:04:00     70.662     2.146    0.0815
   05/02/2018 01:05:00     66.810     2.068    0.0785
   05/02/2018 01:06:00     63.264     1.995    0.0755
   05/02/2018 01:07:00     59.988     1.927    0.0726
   05/02/2018 01:08:00     56.958     1.863    0.0698
   05/02/2018 01:09:00     54.150     1.804    0.0671
   05/02/2018 01:10:00     51.546     1.748    0.0645
   05/02/2018 01:11:00     49.122     1.696    0.0621
   05/02/2018 01:12:00     46.860     1.648    0.0597
   05/02/2018 01:13:00     44.754     1.603    0.0574
   05/02/2018 01:14:00     42.786     1.561    0.0553
   05/02/2018 01:15:00     40.938     1.522    0.0532
   05/02/2018 01:16:00     39.210     1.485    0.0512
   05/02/2018 01:17:00     37.590     1.451    0.0493
   05/02/2018 01:18:00     36.066     1.419    0.0475
   05/02/2018 01:19:00     34.632     1.389    0.0458
   05/02/2018 01:20:00     33.276     1.361    0.0441
   05/02/2018 01:21:00     32.004     1.335    0.0426
   05/02/2018 01:22:00     30.798     1.311    0.0411
   05/02/2018 01:23:00     29.664     1.288    0.0396
   05/02/2018 01:24:00     28.584     1.267    0.0383
   05/02/2018 01:25:00     27.564     1.248    0.0370
   05/02/2018 01:26:00     26.598     1.229    0.0357
   05/02/2018 01:27:00     25.680     1.212    0.0345
   05/02/2018 01:28:00     24.810     1.196    0.0334
   05/02/2018 01:29:00     23.982     1.181    0.0323
   05/02/2018 01:30:00     23.196     1.167    0.0312
   05/02/2018 01:31:00     22.446     1.154    0.0303
   05/02/2018 01:32:00     21.726     1.142    0.0293
   05/02/2018 01:33:00     21.048     1.131    0.0284
   05/02/2018 01:34:00     20.394     1.120    0.0275
   05/02/2018 01:35:00     19.776     1.110    0.0267
   05/02/2018 01:36:00     19.182     1.101    0.0259
   05/02/2018 01:37:00     18.612     1.092    0.0251
   05/02/2018 01:38:00     18.072     1.084    0.0243
   05/02/2018 01:39:00     17.550     1.077    0.0236
   05/02/2018 01:40:00     17.052     1.070    0.0229
   05/02/2018 01:41:00     16.572     1.063    0.0223
   05/02/2018 01:42:00     16.116     1.057    0.0216
   05/02/2018 01:43:00     15.678     1.052    0.0210
   05/02/2018 01:44:00     15.252     1.046    0.0204
   05/02/2018 01:45:00     14.850     1.041    0.0199
   05/02/2018 01:46:00     14.460     1.037    0.0193
   05/02/2018 01:47:00     14.082     1.032    0.0188
   05/02/2018 01:48:00     13.722     1.028    0.0183
   05/02/2018 01:49:00     13.374     1.025    0.0178
   05/02/2018 01:50:00     13.038     1.021    0.0174
   05/02/2018 01:51:00     12.720     1.018    0.0169
   05/02/2018 01:52:00     12.408     1.015    0.0165
   05/02/2018 01:53:00     12.108     1.012    0.0161
   05/02/2018 01:54:00     11.820     1.009    0.0157
   05/02/2018 01:55:00     11.538     1.007    0.0153
   05/02/2018 01:56:00     11.268     1.004    0.0149
   05/02/2018 01:57:00     11.010     1.002    0.0145
   05/02/2018 01:58:00     10.758     1.000    0.0142
   05/02/2018 01:59:00     10.518     1.000    0.0138
  
  
  <<< Subcatchment S7 >>>
  ---------------------------------------------------
  Date        Time        Precip.    Losses    Runoff
                            mm/hr     mm/hr       CMS
  ---------------------------------------------------
   05/02/2018 00:02:00     11.010     6.056    0.0000
   05/02/2018 00:03:00     11.406     6.273    0.0001
   05/02/2018 00:04:00     11.820     6.501    0.0001
   05/02/2018 00:05:00     12.258     6.742    0.0002
   05/02/2018 00:06:00     12.720     6.996    0.0003
   05/02/2018 00:07:00     13.206     7.263    0.0003
   05/02/2018 00:08:00     13.722     7.547    0.0004
   05/02/2018 00:09:00     14.268     7.847    0.0006
   05/02/2018 00:10:00     14.850     8.167    0.0009
   05/02/2018 00:11:00     15.462     8.504    0.0013
   05/02/2018 00:12:00     16.116     8.864    0.0016
   05/02/2018 00:13:00     16.812     9.247    0.0019
   05/02/2018 00:14:00     17.550     9.653    0.0022
   05/02/2018 00:15:00     18.342    10.088    0.0025
   05/02/2018 00:16:00     19.182    10.550    0.0027
   05/02/2018 00:17:00     20.082    11.045    0.0030
   05/02/2018 00:18:00     21.048    11.576    0.0032
   05/02/2018 00:19:00     22.080    12.144    0.0034
   05/02/2018 00:20:00     23.196    12.758    0.0036
   05/02/2018 00:21:00     24.390    13.415    0.0038
   05/02/2018 00:22:00     25.680    14.124    0.0041
   05/02/2018 00:23:00     27.078    14.893    0.0043
   05/02/2018 00:24:00     28.584    15.721    0.0045
   05/02/2018 00:25:00     30.222    16.622    0.0048
   05/02/2018 00:26:00     32.004    17.602    0.0051
   05/02/2018 00:27:00     33.942    18.668    0.0054
   05/02/2018 00:28:00     36.066    19.836    0.0057
   05/02/2018 00:29:00     38.388    21.018    0.0061
   05/02/2018 00:30:00     40.938    19.696    0.0065
   05/02/2018 00:31:00     43.752    18.462    0.0069
   05/02/2018 00:32:00     46.860    17.310    0.0074
   05/02/2018 00:33:00     50.310    16.235    0.0079
   05/02/2018 00:34:00     54.150    15.232    0.0085
   05/02/2018 00:35:00     58.446    14.296    0.0091
   05/02/2018 00:36:00     63.264    13.422    0.0099
   05/02/2018 00:37:00     68.700    12.606    0.0107
   05/02/2018 00:38:00     74.856    11.845    0.0116
   05/02/2018 00:39:00     81.876    11.134    0.0127
   05/02/2018 00:40:00     89.916    10.471    0.0140
   05/02/2018 00:41:00     99.192     9.852    0.0157
   05/02/2018 00:42:00    109.974     9.274    0.0177
   05/02/2018 00:43:00    122.592     8.735    0.0201
   05/02/2018 00:44:00    137.496     8.232    0.0231
   05/02/2018 00:45:00    155.274     7.762    0.0268
   05/02/2018 00:46:00    176.706     7.324    0.0313
   05/02/2018 00:47:00    202.866     6.915    0.0368
   05/02/2018 00:48:00    235.254     6.533    0.0437
   05/02/2018 00:49:00    212.880     6.177    0.0523
   05/02/2018 00:50:00    193.542     5.844    0.0549
   05/02/2018 00:51:00    176.706     5.534    0.0550
   05/02/2018 00:52:00    161.964     5.244    0.0542
   05/02/2018 00:53:00    148.986     4.974    0.0529
   05/02/2018 00:54:00    137.496     4.721    0.0515
   05/02/2018 00:55:00    127.284     4.486    0.0500
   05/02/2018 00:56:00    118.158     4.266    0.0485
   05/02/2018 00:57:00    109.974     4.061    0.0469
   05/02/2018 00:58:00    102.606     3.869    0.0453
   05/02/2018 00:59:00     95.952     3.690    0.0437
   05/02/2018 01:00:00     89.916     3.523    0.0422
   05/02/2018 01:01:00     84.432     3.368    0.0406
   05/02/2018 01:02:00     79.428     3.222    0.0391
   05/02/2018 01:03:00     74.856     3.087    0.0376
   05/02/2018 01:04:00     70.662     2.960    0.0362
   05/02/2018 01:05:00     66.810     2.842    0.0348
   05/02/2018 01:06:00     63.264     2.732    0.0334
   05/02/2018 01:07:00     59.988     2.629    0.0321
   05/02/2018 01:08:00     56.958     2.533    0.0309
   05/02/2018 01:09:00     54.150     2.443    0.0297
   05/02/2018 01:10:00     51.546     2.359    0.0285
   05/02/2018 01:11:00     49.122     2.281    0.0274
   05/02/2018 01:12:00     46.860     2.208    0.0264
   05/02/2018 01:13:00     44.754     2.140    0.0254
   05/02/2018 01:14:00     42.786     2.077    0.0244
   05/02/2018 01:15:00     40.938     2.018    0.0235
   05/02/2018 01:16:00     39.210     1.962    0.0226
   05/02/2018 01:17:00     37.590     1.911    0.0218
   05/02/2018 01:18:00     36.066     1.862    0.0210
   05/02/2018 01:19:00     34.632     1.818    0.0202
   05/02/2018 01:20:00     33.276     1.776    0.0195
   05/02/2018 01:21:00     32.004     1.736    0.0188
   05/02/2018 01:22:00     30.798     1.700    0.0181
   05/02/2018 01:23:00     29.664     1.666    0.0175
   05/02/2018 01:24:00     28.584     1.634    0.0169
   05/02/2018 01:25:00     27.564     1.604    0.0163
   05/02/2018 01:26:00     26.598     1.576    0.0158
   05/02/2018 01:27:00     25.680     1.550    0.0153
   05/02/2018 01:28:00     24.810     1.526    0.0148
   05/02/2018 01:29:00     23.982     1.504    0.0143
   05/02/2018 01:30:00     23.196     1.483    0.0138
   05/02/2018 01:31:00     22.446     1.463    0.0134
   05/02/2018 01:32:00     21.726     1.445    0.0130
   05/02/2018 01:33:00     21.048     1.428    0.0125
   05/02/2018 01:34:00     20.394     1.412    0.0122
   05/02/2018 01:35:00     19.776     1.397    0.0118
   05/02/2018 01:36:00     19.182     1.383    0.0114
   05/02/2018 01:37:00     18.612     1.370    0.0111
   05/02/2018 01:38:00     18.072     1.358    0.0108
   05/02/2018 01:39:00     17.550     1.346    0.0104
   05/02/2018 01:40:00     17.052     1.336    0.0101
   05/02/2018 01:41:00     16.572     1.326    0.0099
   05/02/2018 01:42:00     16.116     1.317    0.0096
   05/02/2018 01:43:00     15.678     1.308    0.0093
   05/02/2018 01:44:00     15.252     1.300    0.0090
   05/02/2018 01:45:00     14.850     1.293    0.0088
   05/02/2018 01:46:00     14.460     1.286    0.0086
   05/02/2018 01:47:00     14.082     1.279    0.0083
   05/02/2018 01:48:00     13.722     1.273    0.0081
   05/02/2018 01:49:00     13.374     1.267    0.0079
   05/02/2018 01:50:00     13.038     1.262    0.0077
   05/02/2018 01:51:00     12.720     1.257    0.0075
   05/02/2018 01:52:00     12.408     1.253    0.0073
   05/02/2018 01:53:00     12.108     1.248    0.0071
   05/02/2018 01:54:00     11.820     1.244    0.0069
   05/02/2018 01:55:00     11.538     1.241    0.0068
   05/02/2018 01:56:00     11.268     1.237    0.0066
   05/02/2018 01:57:00     11.010     1.234    0.0064
   05/02/2018 01:58:00     10.758     1.231    0.0063
   05/02/2018 01:59:00     10.518     1.231    0.0061
  
  
  <<< Subcatchment S8 >>>
  ---------------------------------------------------
  Date        Time        Precip.    Losses    Runoff
                            mm/hr     mm/hr       CMS
  ---------------------------------------------------
   05/02/2018 00:02:00     11.010     6.638    0.0000
   05/02/2018 00:03:00     11.406     6.944    0.0001
   05/02/2018 00:04:00     11.820     7.285    0.0002
   05/02/2018 00:05:00     12.258     7.659    0.0003
   05/02/2018 00:06:00     12.720     8.059    0.0003
   05/02/2018 00:07:00     13.206     8.480    0.0004
   05/02/2018 00:08:00     13.722     8.969    0.0006
   05/02/2018 00:09:00     14.268     9.662    0.0009
   05/02/2018 00:10:00     14.850    10.505    0.0014
   05/02/2018 00:11:00     15.462    11.451    0.0019
   05/02/2018 00:12:00     16.116    12.478    0.0025
   05/02/2018 00:13:00     16.812    13.559    0.0031
   05/02/2018 00:14:00     17.550    14.678    0.0038
   05/02/2018 00:15:00     18.342    15.827    0.0044
   05/02/2018 00:16:00     19.182    16.998    0.0050
   05/02/2018 00:17:00     20.082    18.192    0.0057
   05/02/2018 00:18:00     21.048    19.414    0.0063
   05/02/2018 00:19:00     22.080    20.667    0.0069
   05/02/2018 00:20:00     23.196    21.966    0.0075
   05/02/2018 00:21:00     24.390    23.311    0.0081
   05/02/2018 00:22:00     25.680    24.722    0.0087
   05/02/2018 00:23:00     27.078    25.355    0.0093
   05/02/2018 00:24:00     28.584    23.751    0.0100
   05/02/2018 00:25:00     30.222    22.254    0.0106
   05/02/2018 00:26:00     32.004    20.857    0.0113
   05/02/2018 00:27:00     33.942    19.553    0.0121
   05/02/2018 00:28:00     36.066    18.335    0.0129
   05/02/2018 00:29:00     38.388    17.199    0.0137
   05/02/2018 00:30:00     40.938    16.139    0.0146
   05/02/2018 00:31:00     43.752    15.149    0.0156
   05/02/2018 00:32:00     46.860    14.226    0.0167
   05/02/2018 00:33:00     50.310    13.364    0.0179
   05/02/2018 00:34:00     54.150    12.559    0.0194
   05/02/2018 00:35:00     58.446    11.808    0.0212
   05/02/2018 00:36:00     63.264    11.107    0.0234
   05/02/2018 00:37:00     68.700    10.453    0.0259
   05/02/2018 00:38:00     74.856     9.843    0.0289
   05/02/2018 00:39:00     81.876     9.273    0.0324
   05/02/2018 00:40:00     89.916     8.741    0.0365
   05/02/2018 00:41:00     99.192     8.244    0.0413
   05/02/2018 00:42:00    109.974     7.781    0.0471
   05/02/2018 00:43:00    122.592     7.349    0.0540
   05/02/2018 00:44:00    137.496     6.945    0.0623
   05/02/2018 00:45:00    155.274     6.569    0.0723
   05/02/2018 00:46:00    176.706     6.217    0.0844
   05/02/2018 00:47:00    202.866     5.889    0.0991
   05/02/2018 00:48:00    235.254     5.583    0.1173
   05/02/2018 00:49:00    212.880     5.297    0.1400
   05/02/2018 00:50:00    193.542     5.030    0.1557
   05/02/2018 00:51:00    176.706     4.781    0.1654
   05/02/2018 00:52:00    161.964     4.549    0.1709
   05/02/2018 00:53:00    148.986     4.332    0.1738
   05/02/2018 00:54:00    137.496     4.130    0.1747
   05/02/2018 00:55:00    127.284     3.941    0.1743
   05/02/2018 00:56:00    118.158     3.764    0.1729
   05/02/2018 00:57:00    109.974     3.600    0.1708
   05/02/2018 00:58:00    102.606     3.446    0.1680
   05/02/2018 00:59:00     95.952     3.303    0.1648
   05/02/2018 01:00:00     89.916     3.169    0.1612
   05/02/2018 01:01:00     84.432     3.044    0.1574
   05/02/2018 01:02:00     79.428     2.928    0.1533
   05/02/2018 01:03:00     74.856     2.819    0.1491
   05/02/2018 01:04:00     70.662     2.717    0.1449
   05/02/2018 01:05:00     66.810     2.622    0.1406
   05/02/2018 01:06:00     63.264     2.534    0.1363
   05/02/2018 01:07:00     59.988     2.451    0.1320
   05/02/2018 01:08:00     56.958     2.374    0.1278
   05/02/2018 01:09:00     54.150     2.303    0.1236
   05/02/2018 01:10:00     51.546     2.235    0.1196
   05/02/2018 01:11:00     49.122     2.173    0.1156
   05/02/2018 01:12:00     46.860     2.114    0.1118
   05/02/2018 01:13:00     44.754     2.060    0.1081
   05/02/2018 01:14:00     42.786     2.009    0.1044
   05/02/2018 01:15:00     40.938     1.961    0.1010
   05/02/2018 01:16:00     39.210     1.917    0.0976
   05/02/2018 01:17:00     37.590     1.876    0.0943
   05/02/2018 01:18:00     36.066     1.837    0.0912
   05/02/2018 01:19:00     34.632     1.801    0.0882
   05/02/2018 01:20:00     33.276     1.767    0.0853
   05/02/2018 01:21:00     32.004     1.736    0.0825
   05/02/2018 01:22:00     30.798     1.706    0.0798
   05/02/2018 01:23:00     29.664     1.679    0.0772
   05/02/2018 01:24:00     28.584     1.654    0.0747
   05/02/2018 01:25:00     27.564     1.630    0.0723
   05/02/2018 01:26:00     26.598     1.607    0.0701
   05/02/2018 01:27:00     25.680     1.587    0.0679
   05/02/2018 01:28:00     24.810     1.567    0.0657
   05/02/2018 01:29:00     23.982     1.549    0.0637
   05/02/2018 01:30:00     23.196     1.532    0.0618
   05/02/2018 01:31:00     22.446     1.517    0.0599
   05/02/2018 01:32:00     21.726     1.502    0.0581
   05/02/2018 01:33:00     21.048     1.488    0.0563
   05/02/2018 01:34:00     20.394     1.475    0.0547
   05/02/2018 01:35:00     19.776     1.463    0.0531
   05/02/2018 01:36:00     19.182     1.452    0.0515
   05/02/2018 01:37:00     18.612     1.442    0.0501
   05/02/2018 01:38:00     18.072     1.432    0.0486
   05/02/2018 01:39:00     17.550     1.423    0.0473
   05/02/2018 01:40:00     17.052     1.415    0.0459
   05/02/2018 01:41:00     16.572     1.407    0.0447
   05/02/2018 01:42:00     16.116     1.399    0.0434
   05/02/2018 01:43:00     15.678     1.392    0.0422
   05/02/2018 01:44:00     15.252     1.386    0.0411
   05/02/2018 01:45:00     14.850     1.380    0.0400
   05/02/2018 01:46:00     14.460     1.374    0.0389
   05/02/2018 01:47:00     14.082     1.369    0.0379
   05/02/2018 01:48:00     13.722     1.364    0.0369
   05/02/2018 01:49:00     13.374     1.360    0.0360
   05/02/2018 01:50:00     13.038     1.355    0.0351
   05/02/2018 01:51:00     12.720     1.351    0.0342
   05/02/2018 01:52:00     12.408     1.348    0.0333
   05/02/2018 01:53:00     12.108     1.344    0.0325
   05/02/2018 01:54:00     11.820     1.341    0.0317
   05/02/2018 01:55:00     11.538     1.338    0.0309
   05/02/2018 01:56:00     11.268     1.335    0.0302
   05/02/2018 01:57:00     11.010     1.333    0.0294
   05/02/2018 01:58:00     10.758     1.330    0.0287
   05/02/2018 01:59:00     10.518     1.330    0.0280
  
  
  <<< Subcatchment S9 >>>
  ---------------------------------------------------
  Date        Time        Precip.    Losses    Runoff
                            mm/hr     mm/hr       CMS
  ---------------------------------------------------
   05/02/2018 00:02:00     11.010     4.955    0.0000
   05/02/2018 00:03:00     11.406     5.133    0.0001
   05/02/2018 00:04:00     11.820     5.319    0.0002
   05/02/2018 00:05:00     12.258     5.516    0.0003
   05/02/2018 00:06:00     12.720     5.724    0.0005
   05/02/2018 00:07:00     13.206     5.943    0.0006
   05/02/2018 00:08:00     13.722     6.175    0.0008
   05/02/2018 00:09:00     14.268     6.421    0.0012
   05/02/2018 00:10:00     14.850     6.682    0.0017
   05/02/2018 00:11:00     15.462     6.958    0.0023
   05/02/2018 00:12:00     16.116     7.252    0.0030
   05/02/2018 00:13:00     16.812     7.565    0.0037
   05/02/2018 00:14:00     17.550     7.898    0.0044
   05/02/2018 00:15:00     18.342     8.254    0.0052
   05/02/2018 00:16:00     19.182     8.632    0.0059
   05/02/2018 00:17:00     20.082     9.037    0.0066
   05/02/2018 00:18:00     21.048     9.472    0.0073
   05/02/2018 00:19:00     22.080     9.936    0.0079
   05/02/2018 00:20:00     23.196    10.438    0.0086
   05/02/2018 00:21:00     24.390    10.976    0.0093
   05/02/2018 00:22:00     25.680    11.556    0.0100
   05/02/2018 00:23:00     27.078    12.185    0.0106
   05/02/2018 00:24:00     28.584    12.863    0.0114
   05/02/2018 00:25:00     30.222    13.600    0.0121
   05/02/2018 00:26:00     32.004    14.402    0.0129
   05/02/2018 00:27:00     33.942    15.274    0.0137
   05/02/2018 00:28:00     36.066    16.230    0.0146
   05/02/2018 00:29:00     38.388    17.196    0.0156
   05/02/2018 00:30:00     40.938    16.115    0.0166
   05/02/2018 00:31:00     43.752    15.105    0.0178
   05/02/2018 00:32:00     46.860    14.163    0.0190
   05/02/2018 00:33:00     50.310    13.283    0.0204
   05/02/2018 00:34:00     54.150    12.462    0.0219
   05/02/2018 00:35:00     58.446    11.696    0.0236
   05/02/2018 00:36:00     63.264    10.981    0.0254
   05/02/2018 00:37:00     68.700    10.314    0.0276
   05/02/2018 00:38:00     74.856     9.691    0.0299
   05/02/2018 00:39:00     81.876     9.110    0.0326
   05/02/2018 00:40:00     89.916     8.567    0.0359
   05/02/2018 00:41:00     99.192     8.061    0.0398
   05/02/2018 00:42:00    109.974     7.588    0.0445
   05/02/2018 00:43:00    122.592     7.147    0.0501
   05/02/2018 00:44:00    137.496     6.735    0.0569
   05/02/2018 00:45:00    155.274     6.351    0.0651
   05/02/2018 00:46:00    176.706     5.992    0.0751
   05/02/2018 00:47:00    202.866     5.658    0.0873
   05/02/2018 00:48:00    235.254     5.345    0.1024
   05/02/2018 00:49:00    212.880     5.054    0.1214
   05/02/2018 00:50:00    193.542     4.782    0.1288
   05/02/2018 00:51:00    176.706     4.528    0.1297
   05/02/2018 00:52:00    161.964     4.291    0.1275
   05/02/2018 00:53:00    148.986     4.069    0.1239
   05/02/2018 00:54:00    137.496     3.863    0.1197
   05/02/2018 00:55:00    127.284     3.670    0.1152
   05/02/2018 00:56:00    118.158     3.490    0.1108
   05/02/2018 00:57:00    109.974     3.322    0.1065
   05/02/2018 00:58:00    102.606     3.166    0.1023
   05/02/2018 00:59:00     95.952     3.019    0.0982
   05/02/2018 01:00:00     89.916     2.883    0.0943
   05/02/2018 01:01:00     84.432     2.755    0.0906
   05/02/2018 01:02:00     79.428     2.636    0.0870
   05/02/2018 01:03:00     74.856     2.526    0.0836
   05/02/2018 01:04:00     70.662     2.422    0.0803
   05/02/2018 01:05:00     66.810     2.325    0.0771
   05/02/2018 01:06:00     63.264     2.235    0.0741
   05/02/2018 01:07:00     59.988     2.151    0.0712
   05/02/2018 01:08:00     56.958     2.072    0.0685
   05/02/2018 01:09:00     54.150     1.999    0.0658
   05/02/2018 01:10:00     51.546     1.930    0.0633
   05/02/2018 01:11:00     49.122     1.867    0.0609
   05/02/2018 01:12:00     46.860     1.807    0.0587
   05/02/2018 01:13:00     44.754     1.751    0.0565
   05/02/2018 01:14:00     42.786     1.699    0.0544
   05/02/2018 01:15:00     40.938     1.651    0.0524
   05/02/2018 01:16:00     39.210     1.606    0.0505
   05/02/2018 01:17:00     37.590     1.563    0.0487
   05/02/2018 01:18:00     36.066     1.524    0.0470
   05/02/2018 01:19:00     34.632     1.487    0.0453
   05/02/2018 01:20:00     33.276     1.453    0.0437
   05/02/2018 01:21:00     32.004     1.421    0.0422
   05/02/2018 01:22:00     30.798     1.391    0.0408
   05/02/2018 01:23:00     29.664     1.363    0.0394
   05/02/2018 01:24:00     28.584     1.337    0.0381
   05/02/2018 01:25:00     27.564     1.312    0.0368
   05/02/2018 01:26:00     26.598     1.290    0.0356
   05/02/2018 01:27:00     25.680     1.269    0.0345
   05/02/2018 01:28:00     24.810     1.249    0.0334
   05/02/2018 01:29:00     23.982     1.230    0.0323
   05/02/2018 01:30:00     23.196     1.213    0.0313
   05/02/2018 01:31:00     22.446     1.197    0.0303
   05/02/2018 01:32:00     21.726     1.182    0.0294
   05/02/2018 01:33:00     21.048     1.168    0.0285
   05/02/2018 01:34:00     20.394     1.155    0.0276
   05/02/2018 01:35:00     19.776     1.143    0.0268
   05/02/2018 01:36:00     19.182     1.131    0.0260
   05/02/2018 01:37:00     18.612     1.121    0.0253
   05/02/2018 01:38:00     18.072     1.111    0.0245
   05/02/2018 01:39:00     17.550     1.102    0.0238
   05/02/2018 01:40:00     17.052     1.093    0.0232
   05/02/2018 01:41:00     16.572     1.085    0.0225
   05/02/2018 01:42:00     16.116     1.077    0.0219
   05/02/2018 01:43:00     15.678     1.070    0.0213
   05/02/2018 01:44:00     15.252     1.064    0.0207
   05/02/2018 01:45:00     14.850     1.058    0.0202
   05/02/2018 01:46:00     14.460     1.052    0.0196
   05/02/2018 01:47:00     14.082     1.047    0.0191
   05/02/2018 01:48:00     13.722     1.042    0.0186
   05/02/2018 01:49:00     13.374     1.037    0.0181
   05/02/2018 01:50:00     13.038     1.033    0.0177
   05/02/2018 01:51:00     12.720     1.029    0.0172
   05/02/2018 01:52:00     12.408     1.025    0.0168
   05/02/2018 01:53:00     12.108     1.021    0.0164
   05/02/2018 01:54:00     11.820     1.018    0.0160
   05/02/2018 01:55:00     11.538     1.015    0.0156
   05/02/2018 01:56:00     11.268     1.012    0.0152
   05/02/2018 01:57:00     11.010     1.009    0.0148
   05/02/2018 01:58:00     10.758     1.007    0.0145
   05/02/2018 01:59:00     10.518     1.007    0.0141
  
  
  <<< Subcatchment S10 >>>
[...]
    Ponding Allowed ........ NO
    Water Quality .......... NO
  Infiltration Method ...... HORTON
  Flow Routing Method ...... DYNWAVE
  Surcharge Method ......... EXTRAN
  Starting Date ............ 05/02/2018 00:01:00
  Ending Date .............. 05/02/2018 01:59:00
  Antecedent Dry Days ...... 0.0
  Report Time Step ......... 00:01:00
  Wet Time Step ............ 00:01:00
  Dry Time Step ............ 00:01:00
  Routing Time Step ........ 30.00 sec
  Variable Time Step ....... YES
  Maximum Trials ........... 8
  Number of Threads ........ 1
  Head Tolerance ........... 0.005000 m
  
  
  **************************        Volume         Depth
  Runoff Quantity Continuity     hectare-m            mm
  **************************     ---------       -------
  Total Precipitation ......         2.081        99.281
  Evaporation Loss .........         0.000         0.000
  Infiltration Loss ........         0.270        12.889
  Surface Runoff ...........         1.434        68.390
  Final Storage ............         0.379        18.065
  Continuity Error (%) .....        -0.064
  
  
  **************************        Volume        Volume
  Flow Routing Continuity        hectare-m      10^6 ltr
  **************************     ---------     ---------
  Dry Weather Inflow .......         0.000         0.000
  Wet Weather Inflow .......         1.430        14.297
  Groundwater Inflow .......         0.000         0.000
  RDII Inflow ..............         0.000         0.000
  External Inflow ..........         0.000         0.000
  External Outflow .........         1.425        14.248
  Flooding Loss ............         0.000         0.000
  Evaporation Loss .........         0.000         0.000
  Exfiltration Loss ........         0.000         0.000
  Initial Stored Volume ....         0.000         0.000
  Final Stored Volume ......         0.008         0.079
  Continuity Error (%) .....        -0.213
  
  
  ***************************
  Time-Step Critical Elements
  ***************************
  Link gq5 (99.80%)
  
  
  ********************************
  Highest Flow Instability Indexes
  ********************************
  All links are stable.
  
  
  *********************************
  Most Frequent Nonconverging Nodes
  *********************************
  Convergence obtained at all time steps.
  
  
  *************************
  Routing Time Step Summary
  *************************
  Minimum Time Step           :     1.95 sec
  Average Time Step           :     2.80 sec
  Maximum Time Step           :    30.00 sec
  % of Time in Steady State   :     0.00
  Average Iterations per Step :     2.00
  % of Steps Not Converging   :     0.00
  Time Step Frequencies       :
     30.000 - 13.228 sec      :     0.16 %
     13.228 -  5.833 sec      :     1.98 %
      5.833 -  2.572 sec      :    42.82 %
      2.572 -  1.134 sec      :    55.05 %
      1.134 -  0.500 sec      :     0.00 %
  
  
  ***************************
  Subcatchment Runoff Summary
  ***************************
  
  ------------------------------------------------------------------------------------------------------------------------------
                            Total      Total      Total      Total     Imperv       Perv      Total       Total     Peak  Runoff
                           Precip      Runon       Evap      Infil     Runoff     Runoff     Runoff      Runoff   Runoff   Coeff
  Subcatchment                 mm         mm         mm         mm         mm         mm         mm    10^6 ltr      CMS
  ------------------------------------------------------------------------------------------------------------------------------
  S1                        99.28       0.00       0.00       5.58      70.77      16.58      87.36        0.79     0.40   0.880
  S2                        99.28     224.21       0.00      13.01     127.83     160.61     288.45        1.01     0.42   0.892
  S3                        99.28       0.00       0.00      10.73      48.32      30.01      78.33        0.24     0.11   0.789
  S4                        99.28       0.00       0.00      10.73      48.46      31.39      79.85        0.22     0.10   0.804
  S5                        99.28     517.75       0.00      12.17     268.90     306.48     575.38        1.63     0.63   0.933
  S6                        99.28      69.28       0.00       9.71      91.11      58.66     149.77        0.26     0.12   0.888
  S7                        99.28       0.00       0.00      11.80      43.78      35.55      79.33        0.12     0.06   0.799
  S8                        99.28     118.96       0.00      12.98      86.07     102.88     188.96        0.44     0.17   0.866
  S9                        99.28       0.00       0.00       9.66      53.18      28.18      81.36        0.28     0.13   0.819
  S10                       99.28      95.46       0.00       4.32     152.04      31.75     183.79        0.70     0.36   0.944
  S11                       99.28      44.51       0.00      10.77      70.04      47.83     117.87        0.89     0.36   0.820
  S12                       99.28       0.00       0.00       3.86      78.64      12.21      90.85        0.36     0.20   0.915
  S13                       99.28       0.00       0.00       8.37      58.75      24.18      82.93        0.34     0.16   0.835
  S14                       99.28       0.00       0.00      11.38      45.50      32.02      77.52        0.29     0.13   0.781
  S15                       99.28      52.88       0.00      10.56      75.72      51.84     127.56        0.71     0.28   0.838
  S16                       99.28      60.38       0.00       5.39     116.77      30.98     147.75        0.51     0.24   0.925
  S17                       99.28       0.00       0.00      10.73      48.47      31.51      79.98        0.21     0.10   0.806
  S18                       99.28      75.73       0.00       7.77     110.10      50.27     160.37        0.23     0.11   0.916
  S19                       99.28       0.00       0.00      12.02      42.83      36.46      79.30        0.11     0.05   0.799
  S34                       99.28      29.40       0.00      20.39       6.35      55.34      61.69        0.77     0.20   0.479
  S21                       99.28     106.24       0.00      12.31      86.66      85.79     172.45        1.03     0.38   0.839
  S22                       99.28      46.05       0.00       8.62      84.58      39.65     124.23        1.22     0.52   0.855
  S23                       99.28      42.71       0.00       8.62      82.71      38.85     121.56        1.05     0.45   0.856
  S24                       99.28      88.67       0.00       5.40     137.63      37.64     175.27        0.64     0.30   0.933
  S25                       99.28       0.00       0.00      10.30      50.27      29.37      79.64        0.32     0.15   0.802
  S26                       99.28       0.00       0.00       8.59      57.77      24.58      82.36        0.45     0.22   0.830
  S27                       99.28       0.00       0.00       8.59      57.90      25.22      83.13        0.37     0.18   0.837
  S28                       99.28       0.00       0.00       8.59      58.24      26.76      84.99        0.13     0.07   0.856
  S29                       99.28      60.09       0.00       8.63      93.79      48.79     142.58        0.31     0.15   0.895
  S30                       99.28     129.01       0.00       8.65     134.71      74.78     209.49        0.50     0.22   0.918
  S31                       99.28     504.30       0.00      12.15     262.93     298.42     561.35        1.14     0.41   0.930
  S32                       99.28     711.33       0.00      10.86     401.20     365.28     766.48        2.54     0.93   0.946
  S33                       99.28     235.16       0.00       8.66     197.20     112.76     309.96        1.37     0.56   0.927
  S20                       99.28     262.36       0.00       8.67     214.16     126.03     340.19        0.64     0.28   0.941
  S36                       99.28       0.00       0.00      18.89      11.74      48.90      60.63        0.18     0.06   0.611
  S37                       99.28       0.00       0.00      21.25       0.98      61.37      62.35        0.05     0.02   0.628
  S38                       99.28       0.00       0.00      21.03       1.97      60.84      62.81        0.04     0.01   0.633
  S39                       99.28      57.68       0.00      21.25       1.56     106.11     107.67        0.17     0.06   0.686
  S40                       99.28       0.00       0.00      21.46       0.00      62.35      62.35        0.05     0.02   0.628
  S73                       99.28       0.00       0.00      21.03       1.97      59.44      61.41        0.08     0.03   0.619
  S42                       99.28      42.17       0.00      19.75      11.20      85.54      96.74        0.18     0.06   0.684
  S43                       99.28       0.00       0.00      10.73      48.55      32.21      80.76        0.16     0.07   0.813
  S44                       99.28       0.00       0.00      17.17      19.57      50.72      70.28        0.07     0.03   0.708
  S45                       99.28       0.00       0.00      19.32       9.78      48.60      58.39        0.22     0.07   0.588
  S46                       99.28       0.00       0.00      21.46       0.00      58.60      58.60        0.09     0.03   0.590
  S47                       99.28       0.00       0.00      19.10      10.76      47.66      58.42        0.25     0.08   0.588
  S48                       99.28       0.00       0.00      19.53       8.81      51.53      60.34        0.15     0.05   0.608
  S49                       99.28     109.84       0.00      19.59      18.68     141.56     160.24        0.22     0.07   0.766
  S50                       99.28     146.20       0.00      21.55       0.00     197.05     197.05        0.11     0.04   0.803
  S51                       99.28       0.00       0.00      19.32       9.80      54.10      63.90        0.08     0.03   0.644
  S52                       99.28       0.00       0.00      21.46       0.00      63.27      63.27        0.04     0.02   0.637
  S53                       99.28       0.00       0.00      21.46       0.00      62.21      62.21        0.05     0.02   0.627
  S54                       99.28      45.17       0.00      15.93      37.09      78.13     115.22        0.10     0.04   0.798
  S55                       99.28       0.00       0.00      15.45      27.38      47.67      75.05        0.04     0.02   0.756
  S56                       99.28       0.00       0.00      10.73      48.70      33.60      82.31        0.07     0.03   0.829
  S57                       99.28     116.81       0.00      21.65       0.00     172.76     172.76        0.10     0.04   0.799
  S58                       99.28       0.00       0.00      14.60      31.09      38.81      69.90        0.28     0.10   0.704
  S59                       99.28      99.62       0.00      19.43      19.70     125.52     145.23        0.41     0.13   0.730
  S60                       99.28       0.00       0.00      11.80      43.62      33.52      77.15        0.27     0.12   0.777
  S61                       99.28      52.18       0.00      10.77      74.39      56.60     130.99        0.21     0.09   0.865
  S62                       99.28       0.00       0.00      14.60      31.21      43.19      74.41        0.08     0.03   0.749
  S63                       99.28       0.00       0.00      17.17      19.54      48.17      67.71        0.12     0.04   0.682
  S64                       99.28     226.97       0.00      17.32      64.78     217.15     281.93        0.29     0.10   0.864
  S65                       99.28       0.00       0.00      17.17      19.54      48.48      68.03        0.11     0.04   0.685
  S66                       99.28       0.00       0.00      19.32       9.81      58.28      68.09        0.03     0.01   0.686
  S67                       99.28      56.37       0.00      21.50       0.00     114.73     114.73        0.06     0.02   0.737
  S68                       99.28       0.00       0.00      21.46       0.00      67.50      67.50        0.01     0.00   0.680
  S69                       99.28     234.20       0.00      17.19      66.28     225.77     292.05        0.21     0.07   0.876
  S70                       99.28     223.23       0.00      20.44      16.06     255.03     271.10        0.16     0.06   0.841
  S71                       99.28       0.00       0.00      20.39       4.91      56.28      61.18        0.10     0.03   0.616
  S72                       99.28       0.00       0.00      21.46       0.00      64.38      64.38        0.03     0.01   0.648
  S35                       99.28      39.15       0.00      20.41       6.84      67.27      74.11        0.64     0.18   0.535
  S41                       99.28       0.00       0.00      21.46       0.00      46.29      46.29        0.32     0.10   0.466
  
  
  ******************
  Node Depth Summary
  ******************
  
  ---------------------------------------------------------------------------------
                                 Average  Maximum  Maximum  Time of Max    Reported
                                   Depth    Depth      HGL   Occurrence   Max Depth
  Node                 Type       Meters   Meters   Meters  days hr:min      Meters
  ---------------------------------------------------------------------------------
  j1                   JUNCTION     0.34     0.54     0.54     0  00:50        0.00
  j2                   JUNCTION     0.42     0.64     0.64     0  00:55        0.00
  j3                   JUNCTION     0.23     0.38     0.38     0  00:55        0.00
  j4                   JUNCTION     0.19     0.25     0.25     0  01:16        0.00
  j5                   JUNCTION     0.13     0.23     0.23     0  00:50        0.00
  pfk1                 OUTFALL      0.00     0.00     0.00     0  00:00        0.00
  pfk2                 OUTFALL      0.00     0.00     0.00     0  00:00        0.00
  pfk3                 OUTFALL      0.00     0.00     0.00     0  00:00        0.00
  pfk4                 OUTFALL      0.31     0.51     0.51     0  00:55        0.00
  pfk5                 OUTFALL      0.21     0.38     0.38     0  00:51        0.00
  pfk6                 OUTFALL      0.21     0.36     0.36     0  00:56        0.00
  pfk7                 OUTFALL      0.15     0.23     0.23     0  01:16        0.00
  pfk8                 OUTFALL      0.10     0.22     0.22     0  00:50        0.00
  
  
  *******************
  Node Inflow Summary
  *******************
  
  -------------------------------------------------------------------------------------------------
                                  Maximum  Maximum                  Lateral       Total        Flow
                                  Lateral    Total  Time of Max      Inflow      Inflow     Balance
                                   Inflow   Inflow   Occurrence      Volume      Volume       Error
  Node                 Type           CMS      CMS  days hr:min    10^6 ltr    10^6 ltr     Percent
  -------------------------------------------------------------------------------------------------
  j1                   JUNCTION     0.996    0.996     0  00:51        2.29        2.29       0.785
  j2                   JUNCTION     1.741    1.741     0  00:55        4.55        4.55       0.563
  j3                   JUNCTION     0.908    0.908     0  00:56        2.31        2.31       0.087
  j4                   JUNCTION     0.383    0.383     0  01:16         1.4         1.4       0.193
  j5                   JUNCTION     0.352    0.352     0  00:51        0.73        0.73       0.125
  pfk1                 OUTFALL      0.350    0.350     0  01:02        1.07        1.07       0.000
  pfk2                 OUTFALL      0.111    0.111     0  00:59       0.296       0.296       0.000
  pfk3                 OUTFALL      0.557    0.557     0  00:57        1.64        1.64       0.000
  pfk4                 OUTFALL      0.000    1.744     0  00:55           0        4.52       0.000
  pfk5                 OUTFALL      0.000    1.005     0  00:51           0        2.27       0.000
  pfk6                 OUTFALL      0.000    0.908     0  00:56           0        2.31       0.000
  pfk7                 OUTFALL      0.000    0.383     0  01:16           0         1.4       0.000
  pfk8                 OUTFALL      0.000    0.352     0  00:50           0       0.729       0.000
  
  
  **********************
  Node Surcharge Summary
  **********************
  
  No nodes were surcharged.
  
  
  *********************
  Node Flooding Summary
  *********************
  
  No nodes were flooded.
  
  
  ***********************
  Outfall Loading Summary
  ***********************
  
  -----------------------------------------------------------
                         Flow       Avg       Max       Total
                         Freq      Flow      Flow      Volume
  Outfall Node           Pcnt       CMS       CMS    10^6 ltr
  -----------------------------------------------------------
  pfk1                  99.92     0.186     0.350       1.069
  pfk2                  99.84     0.052     0.111       0.296
  pfk3                  99.92     0.286     0.557       1.644
  pfk4                  99.33     0.801     1.744       4.520
  pfk5                  99.41     0.401     1.005       2.275
  pfk6                  99.56     0.409     0.908       2.312
  pfk7                  99.53     0.235     0.383       1.402
  pfk8                  99.45     0.128     0.352       0.729
  -----------------------------------------------------------
  System                99.62     2.499     5.141      14.248
  
  
  ********************
  Link Flow Summary
  ********************
  
  -----------------------------------------------------------------------------
                                 Maximum  Time of Max   Maximum    Max/    Max/
                                  |Flow|   Occurrence   |Veloc|    Full    Full
  Link                 Type          CMS  days hr:min     m/sec    Flow   Depth
  -----------------------------------------------------------------------------
  gq1                  CONDUIT     1.005     0  00:51      1.26    0.52    0.11
  2                    CONDUIT     1.744     0  00:55      1.58    0.87    0.14
  gq3                  CONDUIT     0.383     0  01:16      1.25    0.07    0.06
  gq4                  CONDUIT     0.352     0  00:50      1.25    0.05    0.06
  gq5                  CONDUIT     0.908     0  00:56      1.56    0.12    0.09
  
  
  ***************************
  Flow Classification Summary
  ***************************
  
  -------------------------------------------------------------------------------------
                      Adjusted    ---------- Fraction of Time in Flow Class ---------- 
                       /Actual         Up    Down  Sub   Sup   Up    Down  Norm  Inlet 
  Conduit               Length    Dry  Dry   Dry   Crit  Crit  Crit  Crit  Ltd   Ctrl  
  -------------------------------------------------------------------------------------
  gq1                     1.00   0.00  0.00  0.00  1.00  0.00  0.00  0.00  0.00  0.00
  2                       1.00   0.00  0.00  0.00  1.00  0.00  0.00  0.00  0.00  0.00
  gq3                     1.00   0.00  0.00  0.00  0.88  0.12  0.00  0.00  0.00  0.00
  gq4                     1.00   0.00  0.00  0.00  0.25  0.74  0.00  0.00  0.00  0.00
  gq5                     1.00   0.00  0.00  0.00  0.52  0.47  0.00  0.00  0.00  0.00
  
  
  *************************
  Conduit Surcharge Summary
  *************************
  
  No conduits were surcharged.
  

  Analysis begun on:  Sun May 14 21:59:25 2023
  Analysis ended on:  Sun May 14 21:59:25 2023
  Total elapsed time: < 1 sec